REMARK  Name = ../refined-set-2016/3bgc/3bgc_pocket.pdb
REMARK  234 active torsions:
REMARK  status: ('A' for Active; 'I' for Inactive)
REMARK    1  A    between atoms: _1  and  _3
REMARK    2  A    between atoms: _3  and  _4
REMARK    3  A    between atoms: _3  and  _6
REMARK    4  A    between atoms: _6  and  _7
REMARK    5  A    between atoms: _7  and  _8
REMARK    6  A    between atoms: _8  and  _9
REMARK    7  A    between atoms: _18  and  _20
REMARK    8  A    between atoms: _20  and  _21
REMARK    9  A    between atoms: _20  and  _23
REMARK   10  A    between atoms: _23  and  _24
REMARK   11  A    between atoms: _27  and  _29
REMARK   12  A    between atoms: _29  and  _30
REMARK   13  A    between atoms: _29  and  _32
REMARK   14  A    between atoms: _32  and  _33
REMARK   15  A    between atoms: _36  and  _38
REMARK   16  A    between atoms: _38  and  _39
REMARK   17  A    between atoms: _38  and  _41
REMARK   18  A    between atoms: _41  and  _42
REMARK   19  A    between atoms: _45  and  _47
REMARK   20  A    between atoms: _47  and  _48
REMARK   21  A    between atoms: _50  and  _52
REMARK   22  A    between atoms: _52  and  _53
REMARK   23  A    between atoms: _56  and  _58
REMARK   24  A    between atoms: _58  and  _59
REMARK   25  A    between atoms: _58  and  _61
REMARK   26  A    between atoms: _61  and  _62
REMARK   27  A    between atoms: _65  and  _67
REMARK   28  A    between atoms: _67  and  _68
REMARK   29  A    between atoms: _67  and  _70
REMARK   30  A    between atoms: _70  and  _71
REMARK   31  A    between atoms: _74  and  _76
REMARK   32  A    between atoms: _76  and  _77
REMARK   33  A    between atoms: _76  and  _79
REMARK   34  A    between atoms: _79  and  _80
REMARK   35  A    between atoms: _83  and  _85
REMARK   36  A    between atoms: _85  and  _86
REMARK   37  A    between atoms: _85  and  _88
REMARK   38  A    between atoms: _91  and  _93
REMARK   39  A    between atoms: _93  and  _94
REMARK   40  A    between atoms: _93  and  _96
REMARK   41  A    between atoms: _96  and  _97
REMARK   42  A    between atoms: _100  and  _102
REMARK   43  A    between atoms: _102  and  _103
REMARK   44  A    between atoms: _102  and  _105
REMARK   45  A    between atoms: _105  and  _106
REMARK   46  A    between atoms: _106  and  _107
REMARK   47  A    between atoms: _107  and  _108
REMARK   48  A    between atoms: _108  and  _109
REMARK   49  A    between atoms: _113  and  _115
REMARK   50  A    between atoms: _115  and  _116
REMARK   51  A    between atoms: _115  and  _118
REMARK   52  A    between atoms: _118  and  _119
REMARK   53  A    between atoms: _119  and  _120
REMARK   54  A    between atoms: _122  and  _124
REMARK   55  A    between atoms: _124  and  _125
REMARK   56  A    between atoms: _124  and  _127
REMARK   57  A    between atoms: _127  and  _128
REMARK   58  A    between atoms: _131  and  _133
REMARK   59  A    between atoms: _133  and  _134
REMARK   60  A    between atoms: _136  and  _138
REMARK   61  A    between atoms: _138  and  _139
REMARK   62  A    between atoms: _141  and  _143
REMARK   63  A    between atoms: _143  and  _144
REMARK   64  A    between atoms: _143  and  _146
REMARK   65  A    between atoms: _146  and  _147
REMARK   66  A    between atoms: _150  and  _152
REMARK   67  A    between atoms: _152  and  _153
REMARK   68  A    between atoms: _155  and  _157
REMARK   69  A    between atoms: _157  and  _158
REMARK   70  A    between atoms: _160  and  _162
REMARK   71  A    between atoms: _162  and  _163
REMARK   72  A    between atoms: _162  and  _165
REMARK   73  A    between atoms: _165  and  _166
REMARK   74  A    between atoms: _172  and  _174
REMARK   75  A    between atoms: _174  and  _175
REMARK   76  A    between atoms: _174  and  _177
REMARK   77  A    between atoms: _177  and  _178
REMARK   78  A    between atoms: _181  and  _183
REMARK   79  A    between atoms: _183  and  _184
REMARK   80  A    between atoms: _183  and  _186
REMARK   81  A    between atoms: _189  and  _191
REMARK   82  A    between atoms: _191  and  _192
REMARK   83  A    between atoms: _191  and  _194
REMARK   84  A    between atoms: _194  and  _195
REMARK   85  A    between atoms: _199  and  _200
REMARK   86  A    between atoms: _205  and  _207
REMARK   87  A    between atoms: _207  and  _208
REMARK   88  A    between atoms: _207  and  _210
REMARK   89  A    between atoms: _210  and  _211
REMARK   90  A    between atoms: _215  and  _216
REMARK   91  A    between atoms: _221  and  _223
REMARK   92  A    between atoms: _223  and  _224
REMARK   93  A    between atoms: _223  and  _226
REMARK   94  A    between atoms: _229  and  _231
REMARK   95  A    between atoms: _231  and  _232
REMARK   96  A    between atoms: _231  and  _234
REMARK   97  A    between atoms: _234  and  _235
REMARK   98  A    between atoms: _240  and  _242
REMARK   99  A    between atoms: _242  and  _243
REMARK  100  A    between atoms: _242  and  _245
REMARK  101  A    between atoms: _245  and  _246
REMARK  102  A    between atoms: _249  and  _251
REMARK  103  A    between atoms: _251  and  _252
REMARK  104  A    between atoms: _251  and  _254
REMARK  105  A    between atoms: _254  and  _255
REMARK  106  A    between atoms: _258  and  _260
REMARK  107  A    between atoms: _260  and  _261
REMARK  108  A    between atoms: _263  and  _265
REMARK  109  A    between atoms: _265  and  _266
REMARK  110  A    between atoms: _265  and  _268
REMARK  111  A    between atoms: _268  and  _269
REMARK  112  A    between atoms: _269  and  _270
REMARK  113  A    between atoms: _270  and  _271
REMARK  114  A    between atoms: _280  and  _282
REMARK  115  A    between atoms: _282  and  _283
REMARK  116  A    between atoms: _282  and  _285
REMARK  117  A    between atoms: _285  and  _286
REMARK  118  A    between atoms: _291  and  _293
REMARK  119  A    between atoms: _293  and  _294
REMARK  120  A    between atoms: _293  and  _296
REMARK  121  A    between atoms: _296  and  _297
REMARK  122  A    between atoms: _297  and  _298
REMARK  123  A    between atoms: _298  and  _299
REMARK  124  A    between atoms: _308  and  _310
REMARK  125  A    between atoms: _310  and  _311
REMARK  126  A    between atoms: _310  and  _313
REMARK  127  A    between atoms: _313  and  _314
REMARK  128  A    between atoms: _317  and  _319
REMARK  129  A    between atoms: _319  and  _320
REMARK  130  A    between atoms: _319  and  _322
REMARK  131  A    between atoms: _322  and  _323
REMARK  132  A    between atoms: _326  and  _328
REMARK  133  A    between atoms: _328  and  _329
REMARK  134  A    between atoms: _328  and  _331
REMARK  135  A    between atoms: _331  and  _332
REMARK  136  A    between atoms: _335  and  _337
REMARK  137  A    between atoms: _337  and  _338
REMARK  138  A    between atoms: _337  and  _340
REMARK  139  A    between atoms: _340  and  _341
REMARK  140  A    between atoms: _344  and  _346
REMARK  141  A    between atoms: _346  and  _347
REMARK  142  A    between atoms: _349  and  _351
REMARK  143  A    between atoms: _351  and  _352
REMARK  144  A    between atoms: _355  and  _357
REMARK  145  A    between atoms: _357  and  _358
REMARK  146  A    between atoms: _357  and  _360
REMARK  147  A    between atoms: _360  and  _361
REMARK  148  A    between atoms: _364  and  _366
REMARK  149  A    between atoms: _366  and  _367
REMARK  150  A    between atoms: _366  and  _369
REMARK  151  A    between atoms: _369  and  _370
REMARK  152  A    between atoms: _373  and  _375
REMARK  153  A    between atoms: _375  and  _376
REMARK  154  A    between atoms: _375  and  _378
REMARK  155  A    between atoms: _378  and  _379
REMARK  156  A    between atoms: _382  and  _384
REMARK  157  A    between atoms: _384  and  _385
REMARK  158  A    between atoms: _384  and  _387
REMARK  159  A    between atoms: _390  and  _392
REMARK  160  A    between atoms: _392  and  _393
REMARK  161  A    between atoms: _392  and  _395
REMARK  162  A    between atoms: _395  and  _396
REMARK  163  A    between atoms: _399  and  _401
REMARK  164  A    between atoms: _401  and  _402
REMARK  165  A    between atoms: _401  and  _404
REMARK  166  A    between atoms: _404  and  _405
REMARK  167  A    between atoms: _405  and  _406
REMARK  168  A    between atoms: _406  and  _407
REMARK  169  A    between atoms: _407  and  _408
REMARK  170  A    between atoms: _412  and  _414
REMARK  171  A    between atoms: _414  and  _415
REMARK  172  A    between atoms: _414  and  _417
REMARK  173  A    between atoms: _417  and  _418
REMARK  174  A    between atoms: _418  and  _419
REMARK  175  A    between atoms: _421  and  _423
REMARK  176  A    between atoms: _423  and  _424
REMARK  177  A    between atoms: _423  and  _426
REMARK  178  A    between atoms: _426  and  _427
REMARK  179  A    between atoms: _430  and  _432
REMARK  180  A    between atoms: _432  and  _433
REMARK  181  A    between atoms: _435  and  _437
REMARK  182  A    between atoms: _437  and  _438
REMARK  183  A    between atoms: _440  and  _442
REMARK  184  A    between atoms: _442  and  _443
REMARK  185  A    between atoms: _442  and  _445
REMARK  186  A    between atoms: _445  and  _446
REMARK  187  A    between atoms: _449  and  _451
REMARK  188  A    between atoms: _451  and  _452
REMARK  189  A    between atoms: _454  and  _456
REMARK  190  A    between atoms: _456  and  _457
REMARK  191  A    between atoms: _459  and  _461
REMARK  192  A    between atoms: _461  and  _462
REMARK  193  A    between atoms: _461  and  _464
REMARK  194  A    between atoms: _464  and  _465
REMARK  195  A    between atoms: _468  and  _470
REMARK  196  A    between atoms: _470  and  _471
REMARK  197  A    between atoms: _470  and  _473
REMARK  198  A    between atoms: _476  and  _478
REMARK  199  A    between atoms: _478  and  _479
REMARK  200  A    between atoms: _478  and  _481
REMARK  201  A    between atoms: _481  and  _482
REMARK  202  A    between atoms: _486  and  _487
REMARK  203  A    between atoms: _492  and  _494
REMARK  204  A    between atoms: _494  and  _495
REMARK  205  A    between atoms: _494  and  _497
REMARK  206  A    between atoms: _497  and  _498
REMARK  207  A    between atoms: _502  and  _503
REMARK  208  A    between atoms: _508  and  _510
REMARK  209  A    between atoms: _510  and  _511
REMARK  210  A    between atoms: _510  and  _513
REMARK  211  A    between atoms: _516  and  _518
REMARK  212  A    between atoms: _518  and  _519
REMARK  213  A    between atoms: _518  and  _521
REMARK  214  A    between atoms: _521  and  _522
REMARK  215  A    between atoms: _527  and  _529
REMARK  216  A    between atoms: _529  and  _530
REMARK  217  A    between atoms: _529  and  _532
REMARK  218  A    between atoms: _532  and  _533
REMARK  219  A    between atoms: _536  and  _538
REMARK  220  A    between atoms: _538  and  _539
REMARK  221  A    between atoms: _538  and  _541
REMARK  222  A    between atoms: _541  and  _542
REMARK  223  A    between atoms: _545  and  _547
REMARK  224  A    between atoms: _547  and  _548
REMARK  225  A    between atoms: _550  and  _552
REMARK  226  A    between atoms: _552  and  _553
REMARK  227  A    between atoms: _552  and  _555
REMARK  228  A    between atoms: _555  and  _556
REMARK  229  A    between atoms: _556  and  _557
REMARK  230  A    between atoms: _557  and  _558
REMARK  231  A    between atoms: _567  and  _569
REMARK  232  A    between atoms: _569  and  _570
REMARK  233  A    between atoms: _569  and  _572
REMARK  234  A    between atoms: _572  and  _573
REMARK                            x       y       z     vdW  Elec       q    Type
REMARK                         _______ _______ _______ _____ _____    ______ ____
ROOT
ATOM      1  NE  ARG A   1     -22.059  21.215 -14.569  0.00  0.00    -0.265 N 
ATOM      2  HE  ARG A   1     -21.784  20.229 -14.388  0.00  0.00    +0.259 HD
ATOM      3  CZ  ARG A   1     -21.103  22.111 -14.391  0.00  0.00    +0.342 C 
ATOM      4  NH2 ARG A   1     -19.900  21.693 -14.005  0.00  0.00    -0.292 N 
ATOM      5 HH21 ARG A   1     -19.727  20.679 -13.849  0.00  0.00    +0.255 HD
ATOM      6 HH22 ARG A   1     -19.133  22.380 -13.859  0.00  0.00    +0.255 HD
ATOM      7  NH1 ARG A   1     -21.273  23.415 -14.578  0.00  0.00    -0.292 N 
ATOM      8 HH11 ARG A   1     -20.481  24.070 -14.421  0.00  0.00    +0.255 HD
ATOM      9 HH12 ARG A   1     -22.198  23.781 -14.881  0.00  0.00    +0.255 HD
ENDROOT
BRANCH   1  10
ATOM     10  CD  ARG A   1     -23.436  21.409 -14.980  0.00  0.00    +0.174 C 
BRANCH  10  11
ATOM     11  CG  ARG A   1     -23.870  20.528 -16.126  0.00  0.00    +0.045 C 
BRANCH  11  12
ATOM     12  CB  ARG A   1     -24.404  19.190 -15.658  0.00  0.00    +0.029 C 
BRANCH  12  13
ATOM     13  CA  ARG A   1     -25.029  18.346 -16.761  0.00  0.00    +0.133 C 
BRANCH  13  14
ATOM     14  N   ARG A   1     -26.268  18.960 -17.233  0.00  0.00    -0.239 NA
ATOM     15  H   ARG A   1     -26.624  19.838 -16.805  0.00  0.00    +0.142 HD
ENDBRANCH  13  14
BRANCH  13  16
ATOM     16  C   ARG A   1     -25.346  16.933 -16.273  0.00  0.00    +0.224 C 
ATOM     17  O   ARG A   1     -26.327  16.809 -15.526  0.00  0.00    -0.287 OA
ENDBRANCH  13  16
ENDBRANCH  12  13
ENDBRANCH  11  12
ENDBRANCH  10  11
ENDBRANCH   1  10
TORSDOF 6
REMARK  Name = ../refined-set-2016/3bgc/3bgc_pocket.pdb
REMARK  234 active torsions:
REMARK  status: ('A' for Active; 'I' for Inactive)
REMARK    1  A    between atoms: _1  and  _3
REMARK    2  A    between atoms: _3  and  _4
REMARK    3  A    between atoms: _3  and  _6
REMARK    4  A    between atoms: _6  and  _7
REMARK    5  A    between atoms: _7  and  _8
REMARK    6  A    between atoms: _8  and  _9
REMARK    7  A    between atoms: _18  and  _20
REMARK    8  A    between atoms: _20  and  _21
REMARK    9  A    between atoms: _20  and  _23
REMARK   10  A    between atoms: _23  and  _24
REMARK   11  A    between atoms: _27  and  _29
REMARK   12  A    between atoms: _29  and  _30
REMARK   13  A    between atoms: _29  and  _32
REMARK   14  A    between atoms: _32  and  _33
REMARK   15  A    between atoms: _36  and  _38
REMARK   16  A    between atoms: _38  and  _39
REMARK   17  A    between atoms: _38  and  _41
REMARK   18  A    between atoms: _41  and  _42
REMARK   19  A    between atoms: _45  and  _47
REMARK   20  A    between atoms: _47  and  _48
REMARK   21  A    between atoms: _50  and  _52
REMARK   22  A    between atoms: _52  and  _53
REMARK   23  A    between atoms: _56  and  _58
REMARK   24  A    between atoms: _58  and  _59
REMARK   25  A    between atoms: _58  and  _61
REMARK   26  A    between atoms: _61  and  _62
REMARK   27  A    between atoms: _65  and  _67
REMARK   28  A    between atoms: _67  and  _68
REMARK   29  A    between atoms: _67  and  _70
REMARK   30  A    between atoms: _70  and  _71
REMARK   31  A    between atoms: _74  and  _76
REMARK   32  A    between atoms: _76  and  _77
REMARK   33  A    between atoms: _76  and  _79
REMARK   34  A    between atoms: _79  and  _80
REMARK   35  A    between atoms: _83  and  _85
REMARK   36  A    between atoms: _85  and  _86
REMARK   37  A    between atoms: _85  and  _88
REMARK   38  A    between atoms: _91  and  _93
REMARK   39  A    between atoms: _93  and  _94
REMARK   40  A    between atoms: _93  and  _96
REMARK   41  A    between atoms: _96  and  _97
REMARK   42  A    between atoms: _100  and  _102
REMARK   43  A    between atoms: _102  and  _103
REMARK   44  A    between atoms: _102  and  _105
REMARK   45  A    between atoms: _105  and  _106
REMARK   46  A    between atoms: _106  and  _107
REMARK   47  A    between atoms: _107  and  _108
REMARK   48  A    between atoms: _108  and  _109
REMARK   49  A    between atoms: _113  and  _115
REMARK   50  A    between atoms: _115  and  _116
REMARK   51  A    between atoms: _115  and  _118
REMARK   52  A    between atoms: _118  and  _119
REMARK   53  A    between atoms: _119  and  _120
REMARK   54  A    between atoms: _122  and  _124
REMARK   55  A    between atoms: _124  and  _125
REMARK   56  A    between atoms: _124  and  _127
REMARK   57  A    between atoms: _127  and  _128
REMARK   58  A    between atoms: _131  and  _133
REMARK   59  A    between atoms: _133  and  _134
REMARK   60  A    between atoms: _136  and  _138
REMARK   61  A    between atoms: _138  and  _139
REMARK   62  A    between atoms: _141  and  _143
REMARK   63  A    between atoms: _143  and  _144
REMARK   64  A    between atoms: _143  and  _146
REMARK   65  A    between atoms: _146  and  _147
REMARK   66  A    between atoms: _150  and  _152
REMARK   67  A    between atoms: _152  and  _153
REMARK   68  A    between atoms: _155  and  _157
REMARK   69  A    between atoms: _157  and  _158
REMARK   70  A    between atoms: _160  and  _162
REMARK   71  A    between atoms: _162  and  _163
REMARK   72  A    between atoms: _162  and  _165
REMARK   73  A    between atoms: _165  and  _166
REMARK   74  A    between atoms: _172  and  _174
REMARK   75  A    between atoms: _174  and  _175
REMARK   76  A    between atoms: _174  and  _177
REMARK   77  A    between atoms: _177  and  _178
REMARK   78  A    between atoms: _181  and  _183
REMARK   79  A    between atoms: _183  and  _184
REMARK   80  A    between atoms: _183  and  _186
REMARK   81  A    between atoms: _189  and  _191
REMARK   82  A    between atoms: _191  and  _192
REMARK   83  A    between atoms: _191  and  _194
REMARK   84  A    between atoms: _194  and  _195
REMARK   85  A    between atoms: _199  and  _200
REMARK   86  A    between atoms: _205  and  _207
REMARK   87  A    between atoms: _207  and  _208
REMARK   88  A    between atoms: _207  and  _210
REMARK   89  A    between atoms: _210  and  _211
REMARK   90  A    between atoms: _215  and  _216
REMARK   91  A    between atoms: _221  and  _223
REMARK   92  A    between atoms: _223  and  _224
REMARK   93  A    between atoms: _223  and  _226
REMARK   94  A    between atoms: _229  and  _231
REMARK   95  A    between atoms: _231  and  _232
REMARK   96  A    between atoms: _231  and  _234
REMARK   97  A    between atoms: _234  and  _235
REMARK   98  A    between atoms: _240  and  _242
REMARK   99  A    between atoms: _242  and  _243
REMARK  100  A    between atoms: _242  and  _245
REMARK  101  A    between atoms: _245  and  _246
REMARK  102  A    between atoms: _249  and  _251
REMARK  103  A    between atoms: _251  and  _252
REMARK  104  A    between atoms: _251  and  _254
REMARK  105  A    between atoms: _254  and  _255
REMARK  106  A    between atoms: _258  and  _260
REMARK  107  A    between atoms: _260  and  _261
REMARK  108  A    between atoms: _263  and  _265
REMARK  109  A    between atoms: _265  and  _266
REMARK  110  A    between atoms: _265  and  _268
REMARK  111  A    between atoms: _268  and  _269
REMARK  112  A    between atoms: _269  and  _270
REMARK  113  A    between atoms: _270  and  _271
REMARK  114  A    between atoms: _280  and  _282
REMARK  115  A    between atoms: _282  and  _283
REMARK  116  A    between atoms: _282  and  _285
REMARK  117  A    between atoms: _285  and  _286
REMARK  118  A    between atoms: _291  and  _293
REMARK  119  A    between atoms: _293  and  _294
REMARK  120  A    between atoms: _293  and  _296
REMARK  121  A    between atoms: _296  and  _297
REMARK  122  A    between atoms: _297  and  _298
REMARK  123  A    between atoms: _298  and  _299
REMARK  124  A    between atoms: _308  and  _310
REMARK  125  A    between atoms: _310  and  _311
REMARK  126  A    between atoms: _310  and  _313
REMARK  127  A    between atoms: _313  and  _314
REMARK  128  A    between atoms: _317  and  _319
REMARK  129  A    between atoms: _319  and  _320
REMARK  130  A    between atoms: _319  and  _322
REMARK  131  A    between atoms: _322  and  _323
REMARK  132  A    between atoms: _326  and  _328
REMARK  133  A    between atoms: _328  and  _329
REMARK  134  A    between atoms: _328  and  _331
REMARK  135  A    between atoms: _331  and  _332
REMARK  136  A    between atoms: _335  and  _337
REMARK  137  A    between atoms: _337  and  _338
REMARK  138  A    between atoms: _337  and  _340
REMARK  139  A    between atoms: _340  and  _341
REMARK  140  A    between atoms: _344  and  _346
REMARK  141  A    between atoms: _346  and  _347
REMARK  142  A    between atoms: _349  and  _351
REMARK  143  A    between atoms: _351  and  _352
REMARK  144  A    between atoms: _355  and  _357
REMARK  145  A    between atoms: _357  and  _358
REMARK  146  A    between atoms: _357  and  _360
REMARK  147  A    between atoms: _360  and  _361
REMARK  148  A    between atoms: _364  and  _366
REMARK  149  A    between atoms: _366  and  _367
REMARK  150  A    between atoms: _366  and  _369
REMARK  151  A    between atoms: _369  and  _370
REMARK  152  A    between atoms: _373  and  _375
REMARK  153  A    between atoms: _375  and  _376
REMARK  154  A    between atoms: _375  and  _378
REMARK  155  A    between atoms: _378  and  _379
REMARK  156  A    between atoms: _382  and  _384
REMARK  157  A    between atoms: _384  and  _385
REMARK  158  A    between atoms: _384  and  _387
REMARK  159  A    between atoms: _390  and  _392
REMARK  160  A    between atoms: _392  and  _393
REMARK  161  A    between atoms: _392  and  _395
REMARK  162  A    between atoms: _395  and  _396
REMARK  163  A    between atoms: _399  and  _401
REMARK  164  A    between atoms: _401  and  _402
REMARK  165  A    between atoms: _401  and  _404
REMARK  166  A    between atoms: _404  and  _405
REMARK  167  A    between atoms: _405  and  _406
REMARK  168  A    between atoms: _406  and  _407
REMARK  169  A    between atoms: _407  and  _408
REMARK  170  A    between atoms: _412  and  _414
REMARK  171  A    between atoms: _414  and  _415
REMARK  172  A    between atoms: _414  and  _417
REMARK  173  A    between atoms: _417  and  _418
REMARK  174  A    between atoms: _418  and  _419
REMARK  175  A    between atoms: _421  and  _423
REMARK  176  A    between atoms: _423  and  _424
REMARK  177  A    between atoms: _423  and  _426
REMARK  178  A    between atoms: _426  and  _427
REMARK  179  A    between atoms: _430  and  _432
REMARK  180  A    between atoms: _432  and  _433
REMARK  181  A    between atoms: _435  and  _437
REMARK  182  A    between atoms: _437  and  _438
REMARK  183  A    between atoms: _440  and  _442
REMARK  184  A    between atoms: _442  and  _443
REMARK  185  A    between atoms: _442  and  _445
REMARK  186  A    between atoms: _445  and  _446
REMARK  187  A    between atoms: _449  and  _451
REMARK  188  A    between atoms: _451  and  _452
REMARK  189  A    between atoms: _454  and  _456
REMARK  190  A    between atoms: _456  and  _457
REMARK  191  A    between atoms: _459  and  _461
REMARK  192  A    between atoms: _461  and  _462
REMARK  193  A    between atoms: _461  and  _464
REMARK  194  A    between atoms: _464  and  _465
REMARK  195  A    between atoms: _468  and  _470
REMARK  196  A    between atoms: _470  and  _471
REMARK  197  A    between atoms: _470  and  _473
REMARK  198  A    between atoms: _476  and  _478
REMARK  199  A    between atoms: _478  and  _479
REMARK  200  A    between atoms: _478  and  _481
REMARK  201  A    between atoms: _481  and  _482
REMARK  202  A    between atoms: _486  and  _487
REMARK  203  A    between atoms: _492  and  _494
REMARK  204  A    between atoms: _494  and  _495
REMARK  205  A    between atoms: _494  and  _497
REMARK  206  A    between atoms: _497  and  _498
REMARK  207  A    between atoms: _502  and  _503
REMARK  208  A    between atoms: _508  and  _510
REMARK  209  A    between atoms: _510  and  _511
REMARK  210  A    between atoms: _510  and  _513
REMARK  211  A    between atoms: _516  and  _518
REMARK  212  A    between atoms: _518  and  _519
REMARK  213  A    between atoms: _518  and  _521
REMARK  214  A    between atoms: _521  and  _522
REMARK  215  A    between atoms: _527  and  _529
REMARK  216  A    between atoms: _529  and  _530
REMARK  217  A    between atoms: _529  and  _532
REMARK  218  A    between atoms: _532  and  _533
REMARK  219  A    between atoms: _536  and  _538
REMARK  220  A    between atoms: _538  and  _539
REMARK  221  A    between atoms: _538  and  _541
REMARK  222  A    between atoms: _541  and  _542
REMARK  223  A    between atoms: _545  and  _547
REMARK  224  A    between atoms: _547  and  _548
REMARK  225  A    between atoms: _550  and  _552
REMARK  226  A    between atoms: _552  and  _553
REMARK  227  A    between atoms: _552  and  _555
REMARK  228  A    between atoms: _555  and  _556
REMARK  229  A    between atoms: _556  and  _557
REMARK  230  A    between atoms: _557  and  _558
REMARK  231  A    between atoms: _567  and  _569
REMARK  232  A    between atoms: _569  and  _570
REMARK  233  A    between atoms: _569  and  _572
REMARK  234  A    between atoms: _572  and  _573
REMARK                            x       y       z     vdW  Elec       q    Type
REMARK                         _______ _______ _______ _____ _____    ______ ____
ROOT
ATOM      1  CA  LEU A   1     -20.340  15.040 -12.853  0.00  0.00    +0.133 C 
ENDROOT
BRANCH   1   2
ATOM      2  N   LEU A   1     -20.209  14.843 -11.421  0.00  0.00    -0.239 NA
ATOM      3  H   LEU A   1     -19.398  15.303 -10.960  0.00  0.00    +0.142 HD
ENDBRANCH   1   2
BRANCH   1   4
ATOM      4  C   LEU A   1     -19.705  13.936 -13.682  0.00  0.00    +0.224 C 
ATOM      5  O   LEU A   1     -18.494  13.728 -13.558  0.00  0.00    -0.287 OA
ENDBRANCH   1   4
BRANCH   1   6
ATOM      6  CB  LEU A   1     -19.646  16.356 -13.206  0.00  0.00    +0.025 C 
BRANCH   6   7
ATOM      7  CG  LEU A   1     -19.683  16.783 -14.669  0.00  0.00    +0.002 C 
ATOM      8  CD2 LEU A   1     -19.145  18.200 -14.831  0.00  0.00    +0.000 C 
ATOM      9  CD1 LEU A   1     -21.097  16.726 -15.199  0.00  0.00    +0.000 C 
ENDBRANCH   6   7
ENDBRANCH   1   6
TORSDOF 4
REMARK  Name = ../refined-set-2016/3bgc/3bgc_pocket.pdb
REMARK  234 active torsions:
REMARK  status: ('A' for Active; 'I' for Inactive)
REMARK    1  A    between atoms: _1  and  _3
REMARK    2  A    between atoms: _3  and  _4
REMARK    3  A    between atoms: _3  and  _6
REMARK    4  A    between atoms: _6  and  _7
REMARK    5  A    between atoms: _7  and  _8
REMARK    6  A    between atoms: _8  and  _9
REMARK    7  A    between atoms: _18  and  _20
REMARK    8  A    between atoms: _20  and  _21
REMARK    9  A    between atoms: _20  and  _23
REMARK   10  A    between atoms: _23  and  _24
REMARK   11  A    between atoms: _27  and  _29
REMARK   12  A    between atoms: _29  and  _30
REMARK   13  A    between atoms: _29  and  _32
REMARK   14  A    between atoms: _32  and  _33
REMARK   15  A    between atoms: _36  and  _38
REMARK   16  A    between atoms: _38  and  _39
REMARK   17  A    between atoms: _38  and  _41
REMARK   18  A    between atoms: _41  and  _42
REMARK   19  A    between atoms: _45  and  _47
REMARK   20  A    between atoms: _47  and  _48
REMARK   21  A    between atoms: _50  and  _52
REMARK   22  A    between atoms: _52  and  _53
REMARK   23  A    between atoms: _56  and  _58
REMARK   24  A    between atoms: _58  and  _59
REMARK   25  A    between atoms: _58  and  _61
REMARK   26  A    between atoms: _61  and  _62
REMARK   27  A    between atoms: _65  and  _67
REMARK   28  A    between atoms: _67  and  _68
REMARK   29  A    between atoms: _67  and  _70
REMARK   30  A    between atoms: _70  and  _71
REMARK   31  A    between atoms: _74  and  _76
REMARK   32  A    between atoms: _76  and  _77
REMARK   33  A    between atoms: _76  and  _79
REMARK   34  A    between atoms: _79  and  _80
REMARK   35  A    between atoms: _83  and  _85
REMARK   36  A    between atoms: _85  and  _86
REMARK   37  A    between atoms: _85  and  _88
REMARK   38  A    between atoms: _91  and  _93
REMARK   39  A    between atoms: _93  and  _94
REMARK   40  A    between atoms: _93  and  _96
REMARK   41  A    between atoms: _96  and  _97
REMARK   42  A    between atoms: _100  and  _102
REMARK   43  A    between atoms: _102  and  _103
REMARK   44  A    between atoms: _102  and  _105
REMARK   45  A    between atoms: _105  and  _106
REMARK   46  A    between atoms: _106  and  _107
REMARK   47  A    between atoms: _107  and  _108
REMARK   48  A    between atoms: _108  and  _109
REMARK   49  A    between atoms: _113  and  _115
REMARK   50  A    between atoms: _115  and  _116
REMARK   51  A    between atoms: _115  and  _118
REMARK   52  A    between atoms: _118  and  _119
REMARK   53  A    between atoms: _119  and  _120
REMARK   54  A    between atoms: _122  and  _124
REMARK   55  A    between atoms: _124  and  _125
REMARK   56  A    between atoms: _124  and  _127
REMARK   57  A    between atoms: _127  and  _128
REMARK   58  A    between atoms: _131  and  _133
REMARK   59  A    between atoms: _133  and  _134
REMARK   60  A    between atoms: _136  and  _138
REMARK   61  A    between atoms: _138  and  _139
REMARK   62  A    between atoms: _141  and  _143
REMARK   63  A    between atoms: _143  and  _144
REMARK   64  A    between atoms: _143  and  _146
REMARK   65  A    between atoms: _146  and  _147
REMARK   66  A    between atoms: _150  and  _152
REMARK   67  A    between atoms: _152  and  _153
REMARK   68  A    between atoms: _155  and  _157
REMARK   69  A    between atoms: _157  and  _158
REMARK   70  A    between atoms: _160  and  _162
REMARK   71  A    between atoms: _162  and  _163
REMARK   72  A    between atoms: _162  and  _165
REMARK   73  A    between atoms: _165  and  _166
REMARK   74  A    between atoms: _172  and  _174
REMARK   75  A    between atoms: _174  and  _175
REMARK   76  A    between atoms: _174  and  _177
REMARK   77  A    between atoms: _177  and  _178
REMARK   78  A    between atoms: _181  and  _183
REMARK   79  A    between atoms: _183  and  _184
REMARK   80  A    between atoms: _183  and  _186
REMARK   81  A    between atoms: _189  and  _191
REMARK   82  A    between atoms: _191  and  _192
REMARK   83  A    between atoms: _191  and  _194
REMARK   84  A    between atoms: _194  and  _195
REMARK   85  A    between atoms: _199  and  _200
REMARK   86  A    between atoms: _205  and  _207
REMARK   87  A    between atoms: _207  and  _208
REMARK   88  A    between atoms: _207  and  _210
REMARK   89  A    between atoms: _210  and  _211
REMARK   90  A    between atoms: _215  and  _216
REMARK   91  A    between atoms: _221  and  _223
REMARK   92  A    between atoms: _223  and  _224
REMARK   93  A    between atoms: _223  and  _226
REMARK   94  A    between atoms: _229  and  _231
REMARK   95  A    between atoms: _231  and  _232
REMARK   96  A    between atoms: _231  and  _234
REMARK   97  A    between atoms: _234  and  _235
REMARK   98  A    between atoms: _240  and  _242
REMARK   99  A    between atoms: _242  and  _243
REMARK  100  A    between atoms: _242  and  _245
REMARK  101  A    between atoms: _245  and  _246
REMARK  102  A    between atoms: _249  and  _251
REMARK  103  A    between atoms: _251  and  _252
REMARK  104  A    between atoms: _251  and  _254
REMARK  105  A    between atoms: _254  and  _255
REMARK  106  A    between atoms: _258  and  _260
REMARK  107  A    between atoms: _260  and  _261
REMARK  108  A    between atoms: _263  and  _265
REMARK  109  A    between atoms: _265  and  _266
REMARK  110  A    between atoms: _265  and  _268
REMARK  111  A    between atoms: _268  and  _269
REMARK  112  A    between atoms: _269  and  _270
REMARK  113  A    between atoms: _270  and  _271
REMARK  114  A    between atoms: _280  and  _282
REMARK  115  A    between atoms: _282  and  _283
REMARK  116  A    between atoms: _282  and  _285
REMARK  117  A    between atoms: _285  and  _286
REMARK  118  A    between atoms: _291  and  _293
REMARK  119  A    between atoms: _293  and  _294
REMARK  120  A    between atoms: _293  and  _296
REMARK  121  A    between atoms: _296  and  _297
REMARK  122  A    between atoms: _297  and  _298
REMARK  123  A    between atoms: _298  and  _299
REMARK  124  A    between atoms: _308  and  _310
REMARK  125  A    between atoms: _310  and  _311
REMARK  126  A    between atoms: _310  and  _313
REMARK  127  A    between atoms: _313  and  _314
REMARK  128  A    between atoms: _317  and  _319
REMARK  129  A    between atoms: _319  and  _320
REMARK  130  A    between atoms: _319  and  _322
REMARK  131  A    between atoms: _322  and  _323
REMARK  132  A    between atoms: _326  and  _328
REMARK  133  A    between atoms: _328  and  _329
REMARK  134  A    between atoms: _328  and  _331
REMARK  135  A    between atoms: _331  and  _332
REMARK  136  A    between atoms: _335  and  _337
REMARK  137  A    between atoms: _337  and  _338
REMARK  138  A    between atoms: _337  and  _340
REMARK  139  A    between atoms: _340  and  _341
REMARK  140  A    between atoms: _344  and  _346
REMARK  141  A    between atoms: _346  and  _347
REMARK  142  A    between atoms: _349  and  _351
REMARK  143  A    between atoms: _351  and  _352
REMARK  144  A    between atoms: _355  and  _357
REMARK  145  A    between atoms: _357  and  _358
REMARK  146  A    between atoms: _357  and  _360
REMARK  147  A    between atoms: _360  and  _361
REMARK  148  A    between atoms: _364  and  _366
REMARK  149  A    between atoms: _366  and  _367
REMARK  150  A    between atoms: _366  and  _369
REMARK  151  A    between atoms: _369  and  _370
REMARK  152  A    between atoms: _373  and  _375
REMARK  153  A    between atoms: _375  and  _376
REMARK  154  A    between atoms: _375  and  _378
REMARK  155  A    between atoms: _378  and  _379
REMARK  156  A    between atoms: _382  and  _384
REMARK  157  A    between atoms: _384  and  _385
REMARK  158  A    between atoms: _384  and  _387
REMARK  159  A    between atoms: _390  and  _392
REMARK  160  A    between atoms: _392  and  _393
REMARK  161  A    between atoms: _392  and  _395
REMARK  162  A    between atoms: _395  and  _396
REMARK  163  A    between atoms: _399  and  _401
REMARK  164  A    between atoms: _401  and  _402
REMARK  165  A    between atoms: _401  and  _404
REMARK  166  A    between atoms: _404  and  _405
REMARK  167  A    between atoms: _405  and  _406
REMARK  168  A    between atoms: _406  and  _407
REMARK  169  A    between atoms: _407  and  _408
REMARK  170  A    between atoms: _412  and  _414
REMARK  171  A    between atoms: _414  and  _415
REMARK  172  A    between atoms: _414  and  _417
REMARK  173  A    between atoms: _417  and  _418
REMARK  174  A    between atoms: _418  and  _419
REMARK  175  A    between atoms: _421  and  _423
REMARK  176  A    between atoms: _423  and  _424
REMARK  177  A    between atoms: _423  and  _426
REMARK  178  A    between atoms: _426  and  _427
REMARK  179  A    between atoms: _430  and  _432
REMARK  180  A    between atoms: _432  and  _433
REMARK  181  A    between atoms: _435  and  _437
REMARK  182  A    between atoms: _437  and  _438
REMARK  183  A    between atoms: _440  and  _442
REMARK  184  A    between atoms: _442  and  _443
REMARK  185  A    between atoms: _442  and  _445
REMARK  186  A    between atoms: _445  and  _446
REMARK  187  A    between atoms: _449  and  _451
REMARK  188  A    between atoms: _451  and  _452
REMARK  189  A    between atoms: _454  and  _456
REMARK  190  A    between atoms: _456  and  _457
REMARK  191  A    between atoms: _459  and  _461
REMARK  192  A    between atoms: _461  and  _462
REMARK  193  A    between atoms: _461  and  _464
REMARK  194  A    between atoms: _464  and  _465
REMARK  195  A    between atoms: _468  and  _470
REMARK  196  A    between atoms: _470  and  _471
REMARK  197  A    between atoms: _470  and  _473
REMARK  198  A    between atoms: _476  and  _478
REMARK  199  A    between atoms: _478  and  _479
REMARK  200  A    between atoms: _478  and  _481
REMARK  201  A    between atoms: _481  and  _482
REMARK  202  A    between atoms: _486  and  _487
REMARK  203  A    between atoms: _492  and  _494
REMARK  204  A    between atoms: _494  and  _495
REMARK  205  A    between atoms: _494  and  _497
REMARK  206  A    between atoms: _497  and  _498
REMARK  207  A    between atoms: _502  and  _503
REMARK  208  A    between atoms: _508  and  _510
REMARK  209  A    between atoms: _510  and  _511
REMARK  210  A    between atoms: _510  and  _513
REMARK  211  A    between atoms: _516  and  _518
REMARK  212  A    between atoms: _518  and  _519
REMARK  213  A    between atoms: _518  and  _521
REMARK  214  A    between atoms: _521  and  _522
REMARK  215  A    between atoms: _527  and  _529
REMARK  216  A    between atoms: _529  and  _530
REMARK  217  A    between atoms: _529  and  _532
REMARK  218  A    between atoms: _532  and  _533
REMARK  219  A    between atoms: _536  and  _538
REMARK  220  A    between atoms: _538  and  _539
REMARK  221  A    between atoms: _538  and  _541
REMARK  222  A    between atoms: _541  and  _542
REMARK  223  A    between atoms: _545  and  _547
REMARK  224  A    between atoms: _547  and  _548
REMARK  225  A    between atoms: _550  and  _552
REMARK  226  A    between atoms: _552  and  _553
REMARK  227  A    between atoms: _552  and  _555
REMARK  228  A    between atoms: _555  and  _556
REMARK  229  A    between atoms: _556  and  _557
REMARK  230  A    between atoms: _557  and  _558
REMARK  231  A    between atoms: _567  and  _569
REMARK  232  A    between atoms: _569  and  _570
REMARK  233  A    between atoms: _569  and  _572
REMARK  234  A    between atoms: _572  and  _573
REMARK                            x       y       z     vdW  Elec       q    Type
REMARK                         _______ _______ _______ _____ _____    ______ ____
ROOT
ATOM      1  C   ASP A   5      -9.013  10.367 -15.883  0.00  0.00    +0.241 C 
ATOM      2  N   ASP A   6      -9.058  11.121 -14.791  0.00  0.00    -0.297 N 
ATOM      3  H   ASP A   6      -8.941  12.150 -14.888  0.00  0.00    +0.150 HD
ATOM      4  O   ASP A   5      -9.226   9.158 -15.875  0.00  0.00    -0.273 OA
ENDROOT
BRANCH   2   5
ATOM      5  CA  ASP A   6      -9.264  10.566 -13.473  0.00  0.00    +0.160 C 
BRANCH   5   6
ATOM      6  C   ASP A   6     -10.314  11.324 -12.665  0.00  0.00    +0.241 C 
ATOM      7  N   THR A   7     -10.908  10.584 -11.746  0.00  0.00    -0.295 N 
ATOM      8  H   THR A   7     -10.646   9.579 -11.698  0.00  0.00    +0.150 HD
ATOM      9  O   ASP A   6     -10.531  12.504 -12.883  0.00  0.00    -0.273 OA
BRANCH   7  10
ATOM     10  CA  THR A   7     -11.904  11.065 -10.791  0.00  0.00    +0.176 C 
BRANCH  10  11
ATOM     11  C   THR A   7     -11.248  12.034  -9.805  0.00  0.00    +0.243 C 
ATOM     12  O   THR A   7     -10.166  11.765  -9.279  0.00  0.00    -0.273 OA
ATOM     13  N   VAL A   8     -11.905  13.162  -9.571  0.00  0.00    -0.297 N 
ATOM     14  H   VAL A   8     -12.768  13.361 -10.116  0.00  0.00    +0.150 HD
BRANCH  13  15
ATOM     15  CA  VAL A   8     -11.460  14.138  -8.573  0.00  0.00    +0.149 C 
BRANCH  15  16
ATOM     16  C   VAL A   8     -12.678  14.655  -7.810  0.00  0.00    +0.241 C 
ATOM     17  N   LEU A   9     -12.582  14.555  -6.481  0.00  0.00    -0.298 N 
ATOM     18  H   LEU A   9     -11.705  14.159  -6.086  0.00  0.00    +0.150 HD
ATOM     19  O   VAL A   8     -13.687  15.098  -8.354  0.00  0.00    -0.273 OA
BRANCH  17  20
ATOM     20  CA  LEU A   9     -13.616  14.961  -5.554  0.00  0.00    +0.137 C 
BRANCH  20  21
ATOM     21  C   LEU A   9     -13.100  16.070  -4.637  0.00  0.00    +0.227 C 
ATOM     22  O   LEU A   9     -11.897  16.115  -4.344  0.00  0.00    -0.286 OA
ENDBRANCH  20  21
BRANCH  20  23
ATOM     23  CB  LEU A   9     -14.073  13.773  -4.703  0.00  0.00    +0.028 C 
BRANCH  23  24
ATOM     24  CG  LEU A   9     -14.590  12.548  -5.462  0.00  0.00    +0.002 C 
ATOM     25  CD2 LEU A   9     -14.981  11.427  -4.508  0.00  0.00    +0.000 C 
ATOM     26  CD1 LEU A   9     -15.746  12.983  -6.358  0.00  0.00    +0.000 C 
ENDBRANCH  23  24
ENDBRANCH  20  23
ENDBRANCH  17  20
ENDBRANCH  15  16
BRANCH  15  27
ATOM     27  CB  VAL A   8     -10.585  15.243  -9.179  0.00  0.00    +0.027 C 
ATOM     28  CG2 VAL A   8     -10.136  16.238  -8.102  0.00  0.00    +0.002 C 
ATOM     29  CG1 VAL A   8     -11.257  16.006 -10.309  0.00  0.00    +0.002 C 
ENDBRANCH  15  27
ENDBRANCH  13  15
ENDBRANCH  10  11
BRANCH  10  30
ATOM     30  CB  THR A   7     -12.556   9.866 -10.077  0.00  0.00    +0.137 C 
ATOM     31  CG2 THR A   7     -13.608  10.327  -9.083  0.00  0.00    +0.034 C 
BRANCH  30  32
ATOM     32  OG1 THR A   7     -13.212   9.018 -11.049  0.00  0.00    -0.382 OA
ATOM     33  HG1 THR A   7     -12.545   8.689 -11.702  0.00  0.00    +0.210 HD
ENDBRANCH  30  32
ENDBRANCH  10  30
ENDBRANCH   7  10
ENDBRANCH   5   6
BRANCH   5  34
ATOM     34  CB  ASP A   6      -7.982  10.604 -12.651  0.00  0.00    +0.143 C 
BRANCH  34  35
ATOM     35  CG  ASP A   6      -6.939   9.637 -13.183  0.00  0.00    +0.367 C 
ATOM     36  OD2 ASP A   6      -7.173   8.416 -13.122  0.00  0.00    -0.246 OA
ATOM     37  OD1 ASP A   6      -5.918  10.166 -13.650  0.00  0.00    -0.246 OA
ENDBRANCH  34  35
ENDBRANCH   5  34
ENDBRANCH   2   5
BRANCH   1  38
ATOM     38  CA  ASP A   5      -8.671  11.099 -17.176  0.00  0.00    +0.160 C 
BRANCH  38  40
ATOM     39  C   ALA A   4     -10.649  12.469 -17.323  0.00  0.00    +0.241 C 
ATOM     40  N   ASP A   5      -9.324  12.404 -17.240  0.00  0.00    -0.297 N 
ATOM     41  H   ASP A   5      -8.757  13.275 -17.221  0.00  0.00    +0.150 HD
ATOM     42  O   ALA A   4     -11.351  11.449 -17.365  0.00  0.00    -0.273 OA
BRANCH  39  43
ATOM     43  CA  ALA A   4     -11.297  13.841 -17.352  0.00  0.00    +0.149 C 
ATOM     44  CB  ALA A   4     -12.076  14.066 -16.062  0.00  0.00    +0.031 C 
BRANCH  43  46
ATOM     45  C   GLY A   3     -11.829  14.566 -19.632  0.00  0.00    +0.243 C 
ATOM     46  N   ALA A   4     -12.189  13.983 -18.496  0.00  0.00    -0.297 N 
ATOM     47  H   ALA A   4     -13.156  13.609 -18.418  0.00  0.00    +0.150 HD
ATOM     48  O   GLY A   3     -10.708  15.040 -19.825  0.00  0.00    -0.273 OA
BRANCH  45  49
ATOM     49  CA  GLY A   3     -12.863  14.643 -20.738  0.00  0.00    +0.176 C 
BRANCH  49  51
ATOM     50  C   THR A   2     -14.167  12.589 -20.757  0.00  0.00    +0.243 C 
ATOM     51  N   GLY A   3     -14.049  13.870 -20.440  0.00  0.00    -0.295 N 
ATOM     52  H   GLY A   3     -14.842  14.339 -19.957  0.00  0.00    +0.150 HD
ATOM     53  O   THR A   2     -13.284  11.907 -21.272  0.00  0.00    -0.273 OA
BRANCH  50  54
ATOM     54  CA  THR A   2     -15.525  11.952 -20.452  0.00  0.00    +0.176 C 
BRANCH  54  57
ATOM     55  C   ASP A   1     -15.897  12.932 -18.238  0.00  0.00    +0.239 C 
ATOM     56  O   ASP A   1     -14.822  12.515 -17.819  0.00  0.00    -0.274 OA
ATOM     57  N   THR A   2     -16.287  12.745 -19.498  0.00  0.00    -0.295 N 
ATOM     58  H   THR A   2     -17.175  13.185 -19.814  0.00  0.00    +0.150 HD
BRANCH  55  59
ATOM     59  CA  ASP A   1     -16.851  13.740 -17.350  0.00  0.00    +0.156 C 
BRANCH  59  60
ATOM     60  N   ASP A   1     -17.676  12.885 -16.499  0.00  0.00    -0.238 NA
ATOM     61  H   ASP A   1     -17.214  12.207 -15.860  0.00  0.00    +0.142 HD
ENDBRANCH  59  60
BRANCH  59  62
ATOM     62  CB  ASP A   1     -16.077  14.716 -16.477  0.00  0.00    +0.140 C 
BRANCH  62  63
ATOM     63  CG  ASP A   1     -15.245  15.720 -17.235  0.00  0.00    +0.367 C 
ATOM     64  OD2 ASP A   1     -14.755  16.688 -16.609  0.00  0.00    -0.246 OA
ATOM     65  OD1 ASP A   1     -15.065  15.585 -18.463  0.00  0.00    -0.246 OA
ENDBRANCH  62  63
ENDBRANCH  59  62
ENDBRANCH  55  59
ENDBRANCH  54  57
BRANCH  54  66
ATOM     66  CB  THR A   2     -16.293  11.719 -21.766  0.00  0.00    +0.137 C 
ATOM     67  CG2 THR A   2     -17.482  10.796 -21.486  0.00  0.00    +0.034 C 
BRANCH  66  68
ATOM     68  OG1 THR A   2     -16.815  12.943 -22.314  0.00  0.00    -0.382 OA
ATOM     69  HG1 THR A   2     -16.068  13.565 -22.500  0.00  0.00    +0.210 HD
ENDBRANCH  66  68
ENDBRANCH  54  66
ENDBRANCH  50  54
ENDBRANCH  49  51
ENDBRANCH  45  49
ENDBRANCH  43  46
ENDBRANCH  39  43
ENDBRANCH  38  40
BRANCH  38  70
ATOM     70  CB  ASP A   5      -7.148  11.227 -17.255  0.00  0.00    +0.143 C 
BRANCH  70  71
ATOM     71  CG  ASP A   5      -6.615  11.783 -18.555  0.00  0.00    +0.367 C 
ATOM     72  OD2 ASP A   5      -5.486  12.336 -18.510  0.00  0.00    -0.246 OA
ATOM     73  OD1 ASP A   5      -7.258  11.700 -19.623  0.00  0.00    -0.246 OA
ENDBRANCH  70  71
ENDBRANCH  38  70
ENDBRANCH   1  38
TORSDOF 31
REMARK  Name = ../refined-set-2016/3bgc/3bgc_pocket.pdb
REMARK  234 active torsions:
REMARK  status: ('A' for Active; 'I' for Inactive)
REMARK    1  A    between atoms: _1  and  _3
REMARK    2  A    between atoms: _3  and  _4
REMARK    3  A    between atoms: _3  and  _6
REMARK    4  A    between atoms: _6  and  _7
REMARK    5  A    between atoms: _7  and  _8
REMARK    6  A    between atoms: _8  and  _9
REMARK    7  A    between atoms: _18  and  _20
REMARK    8  A    between atoms: _20  and  _21
REMARK    9  A    between atoms: _20  and  _23
REMARK   10  A    between atoms: _23  and  _24
REMARK   11  A    between atoms: _27  and  _29
REMARK   12  A    between atoms: _29  and  _30
REMARK   13  A    between atoms: _29  and  _32
REMARK   14  A    between atoms: _32  and  _33
REMARK   15  A    between atoms: _36  and  _38
REMARK   16  A    between atoms: _38  and  _39
REMARK   17  A    between atoms: _38  and  _41
REMARK   18  A    between atoms: _41  and  _42
REMARK   19  A    between atoms: _45  and  _47
REMARK   20  A    between atoms: _47  and  _48
REMARK   21  A    between atoms: _50  and  _52
REMARK   22  A    between atoms: _52  and  _53
REMARK   23  A    between atoms: _56  and  _58
REMARK   24  A    between atoms: _58  and  _59
REMARK   25  A    between atoms: _58  and  _61
REMARK   26  A    between atoms: _61  and  _62
REMARK   27  A    between atoms: _65  and  _67
REMARK   28  A    between atoms: _67  and  _68
REMARK   29  A    between atoms: _67  and  _70
REMARK   30  A    between atoms: _70  and  _71
REMARK   31  A    between atoms: _74  and  _76
REMARK   32  A    between atoms: _76  and  _77
REMARK   33  A    between atoms: _76  and  _79
REMARK   34  A    between atoms: _79  and  _80
REMARK   35  A    between atoms: _83  and  _85
REMARK   36  A    between atoms: _85  and  _86
REMARK   37  A    between atoms: _85  and  _88
REMARK   38  A    between atoms: _91  and  _93
REMARK   39  A    between atoms: _93  and  _94
REMARK   40  A    between atoms: _93  and  _96
REMARK   41  A    between atoms: _96  and  _97
REMARK   42  A    between atoms: _100  and  _102
REMARK   43  A    between atoms: _102  and  _103
REMARK   44  A    between atoms: _102  and  _105
REMARK   45  A    between atoms: _105  and  _106
REMARK   46  A    between atoms: _106  and  _107
REMARK   47  A    between atoms: _107  and  _108
REMARK   48  A    between atoms: _108  and  _109
REMARK   49  A    between atoms: _113  and  _115
REMARK   50  A    between atoms: _115  and  _116
REMARK   51  A    between atoms: _115  and  _118
REMARK   52  A    between atoms: _118  and  _119
REMARK   53  A    between atoms: _119  and  _120
REMARK   54  A    between atoms: _122  and  _124
REMARK   55  A    between atoms: _124  and  _125
REMARK   56  A    between atoms: _124  and  _127
REMARK   57  A    between atoms: _127  and  _128
REMARK   58  A    between atoms: _131  and  _133
REMARK   59  A    between atoms: _133  and  _134
REMARK   60  A    between atoms: _136  and  _138
REMARK   61  A    between atoms: _138  and  _139
REMARK   62  A    between atoms: _141  and  _143
REMARK   63  A    between atoms: _143  and  _144
REMARK   64  A    between atoms: _143  and  _146
REMARK   65  A    between atoms: _146  and  _147
REMARK   66  A    between atoms: _150  and  _152
REMARK   67  A    between atoms: _152  and  _153
REMARK   68  A    between atoms: _155  and  _157
REMARK   69  A    between atoms: _157  and  _158
REMARK   70  A    between atoms: _160  and  _162
REMARK   71  A    between atoms: _162  and  _163
REMARK   72  A    between atoms: _162  and  _165
REMARK   73  A    between atoms: _165  and  _166
REMARK   74  A    between atoms: _172  and  _174
REMARK   75  A    between atoms: _174  and  _175
REMARK   76  A    between atoms: _174  and  _177
REMARK   77  A    between atoms: _177  and  _178
REMARK   78  A    between atoms: _181  and  _183
REMARK   79  A    between atoms: _183  and  _184
REMARK   80  A    between atoms: _183  and  _186
REMARK   81  A    between atoms: _189  and  _191
REMARK   82  A    between atoms: _191  and  _192
REMARK   83  A    between atoms: _191  and  _194
REMARK   84  A    between atoms: _194  and  _195
REMARK   85  A    between atoms: _199  and  _200
REMARK   86  A    between atoms: _205  and  _207
REMARK   87  A    between atoms: _207  and  _208
REMARK   88  A    between atoms: _207  and  _210
REMARK   89  A    between atoms: _210  and  _211
REMARK   90  A    between atoms: _215  and  _216
REMARK   91  A    between atoms: _221  and  _223
REMARK   92  A    between atoms: _223  and  _224
REMARK   93  A    between atoms: _223  and  _226
REMARK   94  A    between atoms: _229  and  _231
REMARK   95  A    between atoms: _231  and  _232
REMARK   96  A    between atoms: _231  and  _234
REMARK   97  A    between atoms: _234  and  _235
REMARK   98  A    between atoms: _240  and  _242
REMARK   99  A    between atoms: _242  and  _243
REMARK  100  A    between atoms: _242  and  _245
REMARK  101  A    between atoms: _245  and  _246
REMARK  102  A    between atoms: _249  and  _251
REMARK  103  A    between atoms: _251  and  _252
REMARK  104  A    between atoms: _251  and  _254
REMARK  105  A    between atoms: _254  and  _255
REMARK  106  A    between atoms: _258  and  _260
REMARK  107  A    between atoms: _260  and  _261
REMARK  108  A    between atoms: _263  and  _265
REMARK  109  A    between atoms: _265  and  _266
REMARK  110  A    between atoms: _265  and  _268
REMARK  111  A    between atoms: _268  and  _269
REMARK  112  A    between atoms: _269  and  _270
REMARK  113  A    between atoms: _270  and  _271
REMARK  114  A    between atoms: _280  and  _282
REMARK  115  A    between atoms: _282  and  _283
REMARK  116  A    between atoms: _282  and  _285
REMARK  117  A    between atoms: _285  and  _286
REMARK  118  A    between atoms: _291  and  _293
REMARK  119  A    between atoms: _293  and  _294
REMARK  120  A    between atoms: _293  and  _296
REMARK  121  A    between atoms: _296  and  _297
REMARK  122  A    between atoms: _297  and  _298
REMARK  123  A    between atoms: _298  and  _299
REMARK  124  A    between atoms: _308  and  _310
REMARK  125  A    between atoms: _310  and  _311
REMARK  126  A    between atoms: _310  and  _313
REMARK  127  A    between atoms: _313  and  _314
REMARK  128  A    between atoms: _317  and  _319
REMARK  129  A    between atoms: _319  and  _320
REMARK  130  A    between atoms: _319  and  _322
REMARK  131  A    between atoms: _322  and  _323
REMARK  132  A    between atoms: _326  and  _328
REMARK  133  A    between atoms: _328  and  _329
REMARK  134  A    between atoms: _328  and  _331
REMARK  135  A    between atoms: _331  and  _332
REMARK  136  A    between atoms: _335  and  _337
REMARK  137  A    between atoms: _337  and  _338
REMARK  138  A    between atoms: _337  and  _340
REMARK  139  A    between atoms: _340  and  _341
REMARK  140  A    between atoms: _344  and  _346
REMARK  141  A    between atoms: _346  and  _347
REMARK  142  A    between atoms: _349  and  _351
REMARK  143  A    between atoms: _351  and  _352
REMARK  144  A    between atoms: _355  and  _357
REMARK  145  A    between atoms: _357  and  _358
REMARK  146  A    between atoms: _357  and  _360
REMARK  147  A    between atoms: _360  and  _361
REMARK  148  A    between atoms: _364  and  _366
REMARK  149  A    between atoms: _366  and  _367
REMARK  150  A    between atoms: _366  and  _369
REMARK  151  A    between atoms: _369  and  _370
REMARK  152  A    between atoms: _373  and  _375
REMARK  153  A    between atoms: _375  and  _376
REMARK  154  A    between atoms: _375  and  _378
REMARK  155  A    between atoms: _378  and  _379
REMARK  156  A    between atoms: _382  and  _384
REMARK  157  A    between atoms: _384  and  _385
REMARK  158  A    between atoms: _384  and  _387
REMARK  159  A    between atoms: _390  and  _392
REMARK  160  A    between atoms: _392  and  _393
REMARK  161  A    between atoms: _392  and  _395
REMARK  162  A    between atoms: _395  and  _396
REMARK  163  A    between atoms: _399  and  _401
REMARK  164  A    between atoms: _401  and  _402
REMARK  165  A    between atoms: _401  and  _404
REMARK  166  A    between atoms: _404  and  _405
REMARK  167  A    between atoms: _405  and  _406
REMARK  168  A    between atoms: _406  and  _407
REMARK  169  A    between atoms: _407  and  _408
REMARK  170  A    between atoms: _412  and  _414
REMARK  171  A    between atoms: _414  and  _415
REMARK  172  A    between atoms: _414  and  _417
REMARK  173  A    between atoms: _417  and  _418
REMARK  174  A    between atoms: _418  and  _419
REMARK  175  A    between atoms: _421  and  _423
REMARK  176  A    between atoms: _423  and  _424
REMARK  177  A    between atoms: _423  and  _426
REMARK  178  A    between atoms: _426  and  _427
REMARK  179  A    between atoms: _430  and  _432
REMARK  180  A    between atoms: _432  and  _433
REMARK  181  A    between atoms: _435  and  _437
REMARK  182  A    between atoms: _437  and  _438
REMARK  183  A    between atoms: _440  and  _442
REMARK  184  A    between atoms: _442  and  _443
REMARK  185  A    between atoms: _442  and  _445
REMARK  186  A    between atoms: _445  and  _446
REMARK  187  A    between atoms: _449  and  _451
REMARK  188  A    between atoms: _451  and  _452
REMARK  189  A    between atoms: _454  and  _456
REMARK  190  A    between atoms: _456  and  _457
REMARK  191  A    between atoms: _459  and  _461
REMARK  192  A    between atoms: _461  and  _462
REMARK  193  A    between atoms: _461  and  _464
REMARK  194  A    between atoms: _464  and  _465
REMARK  195  A    between atoms: _468  and  _470
REMARK  196  A    between atoms: _470  and  _471
REMARK  197  A    between atoms: _470  and  _473
REMARK  198  A    between atoms: _476  and  _478
REMARK  199  A    between atoms: _478  and  _479
REMARK  200  A    between atoms: _478  and  _481
REMARK  201  A    between atoms: _481  and  _482
REMARK  202  A    between atoms: _486  and  _487
REMARK  203  A    between atoms: _492  and  _494
REMARK  204  A    between atoms: _494  and  _495
REMARK  205  A    between atoms: _494  and  _497
REMARK  206  A    between atoms: _497  and  _498
REMARK  207  A    between atoms: _502  and  _503
REMARK  208  A    between atoms: _508  and  _510
REMARK  209  A    between atoms: _510  and  _511
REMARK  210  A    between atoms: _510  and  _513
REMARK  211  A    between atoms: _516  and  _518
REMARK  212  A    between atoms: _518  and  _519
REMARK  213  A    between atoms: _518  and  _521
REMARK  214  A    between atoms: _521  and  _522
REMARK  215  A    between atoms: _527  and  _529
REMARK  216  A    between atoms: _529  and  _530
REMARK  217  A    between atoms: _529  and  _532
REMARK  218  A    between atoms: _532  and  _533
REMARK  219  A    between atoms: _536  and  _538
REMARK  220  A    between atoms: _538  and  _539
REMARK  221  A    between atoms: _538  and  _541
REMARK  222  A    between atoms: _541  and  _542
REMARK  223  A    between atoms: _545  and  _547
REMARK  224  A    between atoms: _547  and  _548
REMARK  225  A    between atoms: _550  and  _552
REMARK  226  A    between atoms: _552  and  _553
REMARK  227  A    between atoms: _552  and  _555
REMARK  228  A    between atoms: _555  and  _556
REMARK  229  A    between atoms: _556  and  _557
REMARK  230  A    between atoms: _557  and  _558
REMARK  231  A    between atoms: _567  and  _569
REMARK  232  A    between atoms: _569  and  _570
REMARK  233  A    between atoms: _569  and  _572
REMARK  234  A    between atoms: _572  and  _573
REMARK                            x       y       z     vdW  Elec       q    Type
REMARK                         _______ _______ _______ _____ _____    ______ ____
ROOT
ATOM      1  C   GLY A   5      -6.857  24.084 -17.978  0.00  0.00    +0.243 C 
ATOM      2  N   ILE A   6      -8.137  24.336 -17.692  0.00  0.00    -0.297 N 
ATOM      3  H   ILE A   6      -8.773  23.599 -17.326  0.00  0.00    +0.150 HD
ATOM      4  O   GLY A   5      -6.098  24.941 -18.416  0.00  0.00    -0.273 OA
ENDROOT
BRANCH   2   5
ATOM      5  CA  ILE A   6      -8.595  25.709 -17.923  0.00  0.00    +0.149 C 
BRANCH   5   6
ATOM      6  C   ILE A   6      -8.500  26.483 -16.621  0.00  0.00    +0.241 C 
ATOM      7  O   ILE A   6      -9.033  26.089 -15.580  0.00  0.00    -0.273 OA
ATOM      8  N   GLY A   7      -7.791  27.601 -16.703  0.00  0.00    -0.295 N 
ATOM      9  H   GLY A   7      -7.306  27.837 -17.592  0.00  0.00    +0.150 HD
BRANCH   8  10
ATOM     10  CA  GLY A   7      -7.683  28.498 -15.570  0.00  0.00    +0.176 C 
BRANCH  10  11
ATOM     11  C   GLY A   7      -6.625  28.058 -14.580  0.00  0.00    +0.243 C 
ATOM     12  O   GLY A   7      -6.503  28.643 -13.502  0.00  0.00    -0.273 OA
ATOM     13  N   GLY A   8      -5.864  27.026 -14.946  0.00  0.00    -0.295 N 
ATOM     14  H   GLY A   8      -6.044  26.528 -15.841  0.00  0.00    +0.150 HD
BRANCH  13  15
ATOM     15  CA  GLY A   8      -4.788  26.612 -14.080  0.00  0.00    +0.176 C 
BRANCH  15  16
ATOM     16  C   GLY A   8      -4.742  25.171 -13.640  0.00  0.00    +0.243 C 
ATOM     17  N   PHE A   9      -3.858  24.948 -12.669  0.00  0.00    -0.297 N 
ATOM     18  H   PHE A   9      -3.294  25.754 -12.330  0.00  0.00    +0.150 HD
ATOM     19  O   GLY A   8      -5.435  24.284 -14.131  0.00  0.00    -0.273 OA
BRANCH  17  20
ATOM     20  CA  PHE A   9      -3.631  23.655 -12.054  0.00  0.00    +0.153 C 
BRANCH  20  21
ATOM     21  C   PHE A   9      -3.999  23.727 -10.583  0.00  0.00    +0.241 C 
ATOM     22  O   PHE A   9      -3.934  24.782  -9.944  0.00  0.00    -0.273 OA
ATOM     23  N   ILE A  10      -4.386  22.593 -10.021  0.00  0.00    -0.298 N 
ATOM     24  H   ILE A  10      -4.560  21.759 -10.617  0.00  0.00    +0.150 HD
BRANCH  23  25
ATOM     25  CA  ILE A  10      -4.571  22.498  -8.583  0.00  0.00    +0.137 C 
BRANCH  25  26
ATOM     26  C   ILE A  10      -3.775  21.298  -8.058  0.00  0.00    +0.227 C 
ATOM     27  O   ILE A  10      -3.554  20.360  -8.815  0.00  0.00    -0.286 OA
ENDBRANCH  25  26
BRANCH  25  28
ATOM     28  CB  ILE A  10      -6.040  22.297  -8.193  0.00  0.00    +0.026 C 
ATOM     29  CG2 ILE A  10      -6.847  23.563  -8.435  0.00  0.00    +0.002 C 
BRANCH  28  30
ATOM     30  CG1 ILE A  10      -6.697  21.089  -8.877  0.00  0.00    +0.002 C 
ATOM     31  CD1 ILE A  10      -8.031  20.746  -8.240  0.00  0.00    +0.000 C 
ENDBRANCH  28  30
ENDBRANCH  25  28
ENDBRANCH  23  25
ENDBRANCH  20  21
BRANCH  20  32
ATOM     32  CB  PHE A   9      -2.163  23.240 -12.199  0.00  0.00    +0.055 C 
BRANCH  32  33
ATOM     33  CG  PHE A   9      -1.828  22.624 -13.546  0.00  0.00    -0.020 A 
ATOM     34  CD2 PHE A   9      -1.609  21.272 -13.690  0.00  0.00    -0.004 A 
ATOM     35  CE2 PHE A   9      -1.304  20.713 -14.918  0.00  0.00    -0.000 A 
ATOM     36  CZ  PHE A   9      -1.199  21.543 -16.019  0.00  0.00    -0.000 A 
ATOM     37  CE1 PHE A   9      -1.418  22.899 -15.890  0.00  0.00    -0.000 A 
ATOM     38  CD1 PHE A   9      -1.729  23.444 -14.662  0.00  0.00    -0.004 A 
ENDBRANCH  32  33
ENDBRANCH  20  32
ENDBRANCH  17  20
ENDBRANCH  15  16
ENDBRANCH  13  15
ENDBRANCH  10  11
ENDBRANCH   8  10
ENDBRANCH   5   6
BRANCH   5  39
ATOM     39  CB  ILE A   6     -10.016  25.697 -18.499  0.00  0.00    +0.027 C 
ATOM     40  CG2 ILE A   6     -10.698  27.027 -18.247  0.00  0.00    +0.002 C 
BRANCH  39  41
ATOM     41  CG1 ILE A   6     -10.056  25.308 -19.987  0.00  0.00    +0.002 C 
ATOM     42  CD1 ILE A   6     -11.455  25.254 -20.555  0.00  0.00    +0.000 C 
ENDBRANCH  39  41
ENDBRANCH   5  39
ENDBRANCH   2   5
BRANCH   1  43
ATOM     43  CA  GLY A   5      -6.445  22.647 -17.740  0.00  0.00    +0.176 C 
BRANCH  43  45
ATOM     44  C   GLY A   4      -5.734  21.263 -15.873  0.00  0.00    +0.243 C 
ATOM     45  N   GLY A   5      -5.988  22.456 -16.386  0.00  0.00    -0.295 N 
ATOM     46  H   GLY A   5      -5.852  23.294 -15.785  0.00  0.00    +0.150 HD
ATOM     47  O   GLY A   4      -5.974  20.204 -16.440  0.00  0.00    -0.273 OA
BRANCH  44  48
ATOM     48  CA  GLY A   4      -5.106  21.316 -14.494  0.00  0.00    +0.176 C 
BRANCH  48  51
ATOM     49  C   ILE A   3      -4.476  19.908 -12.706  0.00  0.00    +0.241 C 
ATOM     50  O   ILE A   3      -4.650  20.823 -11.911  0.00  0.00    -0.273 OA
ATOM     51  N   GLY A   4      -4.677  20.015 -14.019  0.00  0.00    -0.295 N 
ATOM     52  H   GLY A   4      -4.535  19.213 -14.665  0.00  0.00    +0.150 HD
BRANCH  49  53
ATOM     53  CA  ILE A   3      -3.984  18.527 -12.283  0.00  0.00    +0.149 C 
BRANCH  53  55
ATOM     54  C   MET A   2      -1.884  18.127 -11.173  0.00  0.00    +0.241 C 
ATOM     55  N   ILE A   3      -3.078  18.699 -11.155  0.00  0.00    -0.297 N 
ATOM     56  H   ILE A   3      -3.369  19.271 -10.336  0.00  0.00    +0.150 HD
ATOM     57  O   MET A   2      -1.455  17.398 -12.069  0.00  0.00    -0.273 OA
BRANCH  54  58
ATOM     58  CA  MET A   2      -1.004  18.427  -9.956  0.00  0.00    +0.149 C 
BRANCH  58  61
ATOM     59  C   LYS A   1      -0.783  16.646  -8.317  0.00  0.00    +0.238 C 
ATOM     60  O   LYS A   1      -1.491  17.232  -7.489  0.00  0.00    -0.274 OA
ATOM     61  N   MET A   2      -0.436  17.175  -9.482  0.00  0.00    -0.297 N 
ATOM     62  H   MET A   2       0.262  16.681 -10.074  0.00  0.00    +0.150 HD
BRANCH  59  63
ATOM     63  CA  LYS A   1      -0.272  15.251  -7.999  0.00  0.00    +0.145 C 
BRANCH  63  64
ATOM     64  N   LYS A   1      -0.103  15.111  -6.569  0.00  0.00    -0.238 NA
ATOM     65  H   LYS A   1      -0.724  15.690  -5.968  0.00  0.00    +0.142 HD
ENDBRANCH  63  64
BRANCH  63  66
ATOM     66  CB  LYS A   1      -1.269  14.193  -8.483  0.00  0.00    +0.026 C 
BRANCH  66  67
ATOM     67  CG  LYS A   1      -1.377  13.988  -9.980  0.00  0.00    -0.000 C 
BRANCH  67  68
ATOM     68  CD  LYS A   1      -2.522  13.037 -10.306  0.00  0.00    -0.024 C 
BRANCH  68  69
ATOM     69  CE  LYS A   1      -2.661  12.808 -11.793  0.00  0.00    -0.086 C 
BRANCH  69  70
ATOM     70  NZ  LYS A   1      -1.404  12.391 -12.468  0.00  0.00    +0.380 N 
ATOM     71  HZ1 LYS A   1      -1.068  11.499 -12.052  0.00  0.00    -0.089 HD
ATOM     72  HZ2 LYS A   1      -0.682  13.128 -12.339  0.00  0.00    -0.089 HD
ATOM     73  HZ3 LYS A   1      -1.586  12.255 -13.483  0.00  0.00    -0.089 HD
ENDBRANCH  69  70
ENDBRANCH  68  69
ENDBRANCH  67  68
ENDBRANCH  66  67
ENDBRANCH  63  66
ENDBRANCH  59  63
ENDBRANCH  58  61
BRANCH  58  74
ATOM     74  CB  MET A   2       0.039  19.461 -10.357  0.00  0.00    +0.041 C 
BRANCH  74  75
ATOM     75  CG  MET A   2       0.985  19.881  -9.240  0.00  0.00    +0.060 C 
BRANCH  75  76
ATOM     76  SD  MET A   2       0.139  20.897  -8.021  0.00  0.00    -0.139 S 
ATOM     77  CE  MET A   2      -0.214  22.364  -8.990  0.00  0.00    +0.069 C 
ENDBRANCH  75  76
ENDBRANCH  74  75
ENDBRANCH  58  74
ENDBRANCH  54  58
ENDBRANCH  53  55
BRANCH  53  78
ATOM     78  CB  ILE A   3      -5.167  17.610 -11.964  0.00  0.00    +0.027 C 
ATOM     79  CG2 ILE A   3      -4.678  16.192 -11.688  0.00  0.00    +0.002 C 
BRANCH  78  80
ATOM     80  CG1 ILE A   3      -6.037  18.082 -10.804  0.00  0.00    +0.002 C 
ATOM     81  CD1 ILE A   3      -7.309  17.268 -10.633  0.00  0.00    +0.000 C 
ENDBRANCH  78  80
ENDBRANCH  53  78
ENDBRANCH  49  53
ENDBRANCH  48  51
ENDBRANCH  44  48
ENDBRANCH  43  45
ENDBRANCH   1  43
TORSDOF 36
REMARK  Name = ../refined-set-2016/3bgc/3bgc_pocket.pdb
REMARK  234 active torsions:
REMARK  status: ('A' for Active; 'I' for Inactive)
REMARK    1  A    between atoms: _1  and  _3
REMARK    2  A    between atoms: _3  and  _4
REMARK    3  A    between atoms: _3  and  _6
REMARK    4  A    between atoms: _6  and  _7
REMARK    5  A    between atoms: _7  and  _8
REMARK    6  A    between atoms: _8  and  _9
REMARK    7  A    between atoms: _18  and  _20
REMARK    8  A    between atoms: _20  and  _21
REMARK    9  A    between atoms: _20  and  _23
REMARK   10  A    between atoms: _23  and  _24
REMARK   11  A    between atoms: _27  and  _29
REMARK   12  A    between atoms: _29  and  _30
REMARK   13  A    between atoms: _29  and  _32
REMARK   14  A    between atoms: _32  and  _33
REMARK   15  A    between atoms: _36  and  _38
REMARK   16  A    between atoms: _38  and  _39
REMARK   17  A    between atoms: _38  and  _41
REMARK   18  A    between atoms: _41  and  _42
REMARK   19  A    between atoms: _45  and  _47
REMARK   20  A    between atoms: _47  and  _48
REMARK   21  A    between atoms: _50  and  _52
REMARK   22  A    between atoms: _52  and  _53
REMARK   23  A    between atoms: _56  and  _58
REMARK   24  A    between atoms: _58  and  _59
REMARK   25  A    between atoms: _58  and  _61
REMARK   26  A    between atoms: _61  and  _62
REMARK   27  A    between atoms: _65  and  _67
REMARK   28  A    between atoms: _67  and  _68
REMARK   29  A    between atoms: _67  and  _70
REMARK   30  A    between atoms: _70  and  _71
REMARK   31  A    between atoms: _74  and  _76
REMARK   32  A    between atoms: _76  and  _77
REMARK   33  A    between atoms: _76  and  _79
REMARK   34  A    between atoms: _79  and  _80
REMARK   35  A    between atoms: _83  and  _85
REMARK   36  A    between atoms: _85  and  _86
REMARK   37  A    between atoms: _85  and  _88
REMARK   38  A    between atoms: _91  and  _93
REMARK   39  A    between atoms: _93  and  _94
REMARK   40  A    between atoms: _93  and  _96
REMARK   41  A    between atoms: _96  and  _97
REMARK   42  A    between atoms: _100  and  _102
REMARK   43  A    between atoms: _102  and  _103
REMARK   44  A    between atoms: _102  and  _105
REMARK   45  A    between atoms: _105  and  _106
REMARK   46  A    between atoms: _106  and  _107
REMARK   47  A    between atoms: _107  and  _108
REMARK   48  A    between atoms: _108  and  _109
REMARK   49  A    between atoms: _113  and  _115
REMARK   50  A    between atoms: _115  and  _116
REMARK   51  A    between atoms: _115  and  _118
REMARK   52  A    between atoms: _118  and  _119
REMARK   53  A    between atoms: _119  and  _120
REMARK   54  A    between atoms: _122  and  _124
REMARK   55  A    between atoms: _124  and  _125
REMARK   56  A    between atoms: _124  and  _127
REMARK   57  A    between atoms: _127  and  _128
REMARK   58  A    between atoms: _131  and  _133
REMARK   59  A    between atoms: _133  and  _134
REMARK   60  A    between atoms: _136  and  _138
REMARK   61  A    between atoms: _138  and  _139
REMARK   62  A    between atoms: _141  and  _143
REMARK   63  A    between atoms: _143  and  _144
REMARK   64  A    between atoms: _143  and  _146
REMARK   65  A    between atoms: _146  and  _147
REMARK   66  A    between atoms: _150  and  _152
REMARK   67  A    between atoms: _152  and  _153
REMARK   68  A    between atoms: _155  and  _157
REMARK   69  A    between atoms: _157  and  _158
REMARK   70  A    between atoms: _160  and  _162
REMARK   71  A    between atoms: _162  and  _163
REMARK   72  A    between atoms: _162  and  _165
REMARK   73  A    between atoms: _165  and  _166
REMARK   74  A    between atoms: _172  and  _174
REMARK   75  A    between atoms: _174  and  _175
REMARK   76  A    between atoms: _174  and  _177
REMARK   77  A    between atoms: _177  and  _178
REMARK   78  A    between atoms: _181  and  _183
REMARK   79  A    between atoms: _183  and  _184
REMARK   80  A    between atoms: _183  and  _186
REMARK   81  A    between atoms: _189  and  _191
REMARK   82  A    between atoms: _191  and  _192
REMARK   83  A    between atoms: _191  and  _194
REMARK   84  A    between atoms: _194  and  _195
REMARK   85  A    between atoms: _199  and  _200
REMARK   86  A    between atoms: _205  and  _207
REMARK   87  A    between atoms: _207  and  _208
REMARK   88  A    between atoms: _207  and  _210
REMARK   89  A    between atoms: _210  and  _211
REMARK   90  A    between atoms: _215  and  _216
REMARK   91  A    between atoms: _221  and  _223
REMARK   92  A    between atoms: _223  and  _224
REMARK   93  A    between atoms: _223  and  _226
REMARK   94  A    between atoms: _229  and  _231
REMARK   95  A    between atoms: _231  and  _232
REMARK   96  A    between atoms: _231  and  _234
REMARK   97  A    between atoms: _234  and  _235
REMARK   98  A    between atoms: _240  and  _242
REMARK   99  A    between atoms: _242  and  _243
REMARK  100  A    between atoms: _242  and  _245
REMARK  101  A    between atoms: _245  and  _246
REMARK  102  A    between atoms: _249  and  _251
REMARK  103  A    between atoms: _251  and  _252
REMARK  104  A    between atoms: _251  and  _254
REMARK  105  A    between atoms: _254  and  _255
REMARK  106  A    between atoms: _258  and  _260
REMARK  107  A    between atoms: _260  and  _261
REMARK  108  A    between atoms: _263  and  _265
REMARK  109  A    between atoms: _265  and  _266
REMARK  110  A    between atoms: _265  and  _268
REMARK  111  A    between atoms: _268  and  _269
REMARK  112  A    between atoms: _269  and  _270
REMARK  113  A    between atoms: _270  and  _271
REMARK  114  A    between atoms: _280  and  _282
REMARK  115  A    between atoms: _282  and  _283
REMARK  116  A    between atoms: _282  and  _285
REMARK  117  A    between atoms: _285  and  _286
REMARK  118  A    between atoms: _291  and  _293
REMARK  119  A    between atoms: _293  and  _294
REMARK  120  A    between atoms: _293  and  _296
REMARK  121  A    between atoms: _296  and  _297
REMARK  122  A    between atoms: _297  and  _298
REMARK  123  A    between atoms: _298  and  _299
REMARK  124  A    between atoms: _308  and  _310
REMARK  125  A    between atoms: _310  and  _311
REMARK  126  A    between atoms: _310  and  _313
REMARK  127  A    between atoms: _313  and  _314
REMARK  128  A    between atoms: _317  and  _319
REMARK  129  A    between atoms: _319  and  _320
REMARK  130  A    between atoms: _319  and  _322
REMARK  131  A    between atoms: _322  and  _323
REMARK  132  A    between atoms: _326  and  _328
REMARK  133  A    between atoms: _328  and  _329
REMARK  134  A    between atoms: _328  and  _331
REMARK  135  A    between atoms: _331  and  _332
REMARK  136  A    between atoms: _335  and  _337
REMARK  137  A    between atoms: _337  and  _338
REMARK  138  A    between atoms: _337  and  _340
REMARK  139  A    between atoms: _340  and  _341
REMARK  140  A    between atoms: _344  and  _346
REMARK  141  A    between atoms: _346  and  _347
REMARK  142  A    between atoms: _349  and  _351
REMARK  143  A    between atoms: _351  and  _352
REMARK  144  A    between atoms: _355  and  _357
REMARK  145  A    between atoms: _357  and  _358
REMARK  146  A    between atoms: _357  and  _360
REMARK  147  A    between atoms: _360  and  _361
REMARK  148  A    between atoms: _364  and  _366
REMARK  149  A    between atoms: _366  and  _367
REMARK  150  A    between atoms: _366  and  _369
REMARK  151  A    between atoms: _369  and  _370
REMARK  152  A    between atoms: _373  and  _375
REMARK  153  A    between atoms: _375  and  _376
REMARK  154  A    between atoms: _375  and  _378
REMARK  155  A    between atoms: _378  and  _379
REMARK  156  A    between atoms: _382  and  _384
REMARK  157  A    between atoms: _384  and  _385
REMARK  158  A    between atoms: _384  and  _387
REMARK  159  A    between atoms: _390  and  _392
REMARK  160  A    between atoms: _392  and  _393
REMARK  161  A    between atoms: _392  and  _395
REMARK  162  A    between atoms: _395  and  _396
REMARK  163  A    between atoms: _399  and  _401
REMARK  164  A    between atoms: _401  and  _402
REMARK  165  A    between atoms: _401  and  _404
REMARK  166  A    between atoms: _404  and  _405
REMARK  167  A    between atoms: _405  and  _406
REMARK  168  A    between atoms: _406  and  _407
REMARK  169  A    between atoms: _407  and  _408
REMARK  170  A    between atoms: _412  and  _414
REMARK  171  A    between atoms: _414  and  _415
REMARK  172  A    between atoms: _414  and  _417
REMARK  173  A    between atoms: _417  and  _418
REMARK  174  A    between atoms: _418  and  _419
REMARK  175  A    between atoms: _421  and  _423
REMARK  176  A    between atoms: _423  and  _424
REMARK  177  A    between atoms: _423  and  _426
REMARK  178  A    between atoms: _426  and  _427
REMARK  179  A    between atoms: _430  and  _432
REMARK  180  A    between atoms: _432  and  _433
REMARK  181  A    between atoms: _435  and  _437
REMARK  182  A    between atoms: _437  and  _438
REMARK  183  A    between atoms: _440  and  _442
REMARK  184  A    between atoms: _442  and  _443
REMARK  185  A    between atoms: _442  and  _445
REMARK  186  A    between atoms: _445  and  _446
REMARK  187  A    between atoms: _449  and  _451
REMARK  188  A    between atoms: _451  and  _452
REMARK  189  A    between atoms: _454  and  _456
REMARK  190  A    between atoms: _456  and  _457
REMARK  191  A    between atoms: _459  and  _461
REMARK  192  A    between atoms: _461  and  _462
REMARK  193  A    between atoms: _461  and  _464
REMARK  194  A    between atoms: _464  and  _465
REMARK  195  A    between atoms: _468  and  _470
REMARK  196  A    between atoms: _470  and  _471
REMARK  197  A    between atoms: _470  and  _473
REMARK  198  A    between atoms: _476  and  _478
REMARK  199  A    between atoms: _478  and  _479
REMARK  200  A    between atoms: _478  and  _481
REMARK  201  A    between atoms: _481  and  _482
REMARK  202  A    between atoms: _486  and  _487
REMARK  203  A    between atoms: _492  and  _494
REMARK  204  A    between atoms: _494  and  _495
REMARK  205  A    between atoms: _494  and  _497
REMARK  206  A    between atoms: _497  and  _498
REMARK  207  A    between atoms: _502  and  _503
REMARK  208  A    between atoms: _508  and  _510
REMARK  209  A    between atoms: _510  and  _511
REMARK  210  A    between atoms: _510  and  _513
REMARK  211  A    between atoms: _516  and  _518
REMARK  212  A    between atoms: _518  and  _519
REMARK  213  A    between atoms: _518  and  _521
REMARK  214  A    between atoms: _521  and  _522
REMARK  215  A    between atoms: _527  and  _529
REMARK  216  A    between atoms: _529  and  _530
REMARK  217  A    between atoms: _529  and  _532
REMARK  218  A    between atoms: _532  and  _533
REMARK  219  A    between atoms: _536  and  _538
REMARK  220  A    between atoms: _538  and  _539
REMARK  221  A    between atoms: _538  and  _541
REMARK  222  A    between atoms: _541  and  _542
REMARK  223  A    between atoms: _545  and  _547
REMARK  224  A    between atoms: _547  and  _548
REMARK  225  A    between atoms: _550  and  _552
REMARK  226  A    between atoms: _552  and  _553
REMARK  227  A    between atoms: _552  and  _555
REMARK  228  A    between atoms: _555  and  _556
REMARK  229  A    between atoms: _556  and  _557
REMARK  230  A    between atoms: _557  and  _558
REMARK  231  A    between atoms: _567  and  _569
REMARK  232  A    between atoms: _569  and  _570
REMARK  233  A    between atoms: _569  and  _572
REMARK  234  A    between atoms: _572  and  _573
REMARK                            x       y       z     vdW  Elec       q    Type
REMARK                         _______ _______ _______ _____ _____    ______ ____
ROOT
ATOM      1  CA  VAL A   1      -4.490  16.979  -5.237  0.00  0.00    +0.133 C 
ENDROOT
BRANCH   1   2
ATOM      2  CB  VAL A   1      -5.457  16.420  -6.295  0.00  0.00    +0.023 C 
ATOM      3  CG2 VAL A   1      -6.331  17.532  -6.854  0.00  0.00    +0.002 C 
ATOM      4  CG1 VAL A   1      -4.721  15.744  -7.433  0.00  0.00    +0.002 C 
ENDBRANCH   1   2
BRANCH   1   5
ATOM      5  N   VAL A   1      -3.584  17.974  -5.781  0.00  0.00    -0.239 NA
ATOM      6  H   VAL A   1      -2.765  17.659  -6.340  0.00  0.00    +0.142 HD
ENDBRANCH   1   5
BRANCH   1   7
ATOM      7  C   VAL A   1      -3.694  15.828  -4.617  0.00  0.00    +0.224 C 
ATOM      8  O   VAL A   1      -2.494  15.633  -4.849  0.00  0.00    -0.287 OA
ENDBRANCH   1   7
TORSDOF 3
REMARK  Name = ../refined-set-2016/3bgc/3bgc_pocket.pdb
REMARK  234 active torsions:
REMARK  status: ('A' for Active; 'I' for Inactive)
REMARK    1  A    between atoms: _1  and  _3
REMARK    2  A    between atoms: _3  and  _4
REMARK    3  A    between atoms: _3  and  _6
REMARK    4  A    between atoms: _6  and  _7
REMARK    5  A    between atoms: _7  and  _8
REMARK    6  A    between atoms: _8  and  _9
REMARK    7  A    between atoms: _18  and  _20
REMARK    8  A    between atoms: _20  and  _21
REMARK    9  A    between atoms: _20  and  _23
REMARK   10  A    between atoms: _23  and  _24
REMARK   11  A    between atoms: _27  and  _29
REMARK   12  A    between atoms: _29  and  _30
REMARK   13  A    between atoms: _29  and  _32
REMARK   14  A    between atoms: _32  and  _33
REMARK   15  A    between atoms: _36  and  _38
REMARK   16  A    between atoms: _38  and  _39
REMARK   17  A    between atoms: _38  and  _41
REMARK   18  A    between atoms: _41  and  _42
REMARK   19  A    between atoms: _45  and  _47
REMARK   20  A    between atoms: _47  and  _48
REMARK   21  A    between atoms: _50  and  _52
REMARK   22  A    between atoms: _52  and  _53
REMARK   23  A    between atoms: _56  and  _58
REMARK   24  A    between atoms: _58  and  _59
REMARK   25  A    between atoms: _58  and  _61
REMARK   26  A    between atoms: _61  and  _62
REMARK   27  A    between atoms: _65  and  _67
REMARK   28  A    between atoms: _67  and  _68
REMARK   29  A    between atoms: _67  and  _70
REMARK   30  A    between atoms: _70  and  _71
REMARK   31  A    between atoms: _74  and  _76
REMARK   32  A    between atoms: _76  and  _77
REMARK   33  A    between atoms: _76  and  _79
REMARK   34  A    between atoms: _79  and  _80
REMARK   35  A    between atoms: _83  and  _85
REMARK   36  A    between atoms: _85  and  _86
REMARK   37  A    between atoms: _85  and  _88
REMARK   38  A    between atoms: _91  and  _93
REMARK   39  A    between atoms: _93  and  _94
REMARK   40  A    between atoms: _93  and  _96
REMARK   41  A    between atoms: _96  and  _97
REMARK   42  A    between atoms: _100  and  _102
REMARK   43  A    between atoms: _102  and  _103
REMARK   44  A    between atoms: _102  and  _105
REMARK   45  A    between atoms: _105  and  _106
REMARK   46  A    between atoms: _106  and  _107
REMARK   47  A    between atoms: _107  and  _108
REMARK   48  A    between atoms: _108  and  _109
REMARK   49  A    between atoms: _113  and  _115
REMARK   50  A    between atoms: _115  and  _116
REMARK   51  A    between atoms: _115  and  _118
REMARK   52  A    between atoms: _118  and  _119
REMARK   53  A    between atoms: _119  and  _120
REMARK   54  A    between atoms: _122  and  _124
REMARK   55  A    between atoms: _124  and  _125
REMARK   56  A    between atoms: _124  and  _127
REMARK   57  A    between atoms: _127  and  _128
REMARK   58  A    between atoms: _131  and  _133
REMARK   59  A    between atoms: _133  and  _134
REMARK   60  A    between atoms: _136  and  _138
REMARK   61  A    between atoms: _138  and  _139
REMARK   62  A    between atoms: _141  and  _143
REMARK   63  A    between atoms: _143  and  _144
REMARK   64  A    between atoms: _143  and  _146
REMARK   65  A    between atoms: _146  and  _147
REMARK   66  A    between atoms: _150  and  _152
REMARK   67  A    between atoms: _152  and  _153
REMARK   68  A    between atoms: _155  and  _157
REMARK   69  A    between atoms: _157  and  _158
REMARK   70  A    between atoms: _160  and  _162
REMARK   71  A    between atoms: _162  and  _163
REMARK   72  A    between atoms: _162  and  _165
REMARK   73  A    between atoms: _165  and  _166
REMARK   74  A    between atoms: _172  and  _174
REMARK   75  A    between atoms: _174  and  _175
REMARK   76  A    between atoms: _174  and  _177
REMARK   77  A    between atoms: _177  and  _178
REMARK   78  A    between atoms: _181  and  _183
REMARK   79  A    between atoms: _183  and  _184
REMARK   80  A    between atoms: _183  and  _186
REMARK   81  A    between atoms: _189  and  _191
REMARK   82  A    between atoms: _191  and  _192
REMARK   83  A    between atoms: _191  and  _194
REMARK   84  A    between atoms: _194  and  _195
REMARK   85  A    between atoms: _199  and  _200
REMARK   86  A    between atoms: _205  and  _207
REMARK   87  A    between atoms: _207  and  _208
REMARK   88  A    between atoms: _207  and  _210
REMARK   89  A    between atoms: _210  and  _211
REMARK   90  A    between atoms: _215  and  _216
REMARK   91  A    between atoms: _221  and  _223
REMARK   92  A    between atoms: _223  and  _224
REMARK   93  A    between atoms: _223  and  _226
REMARK   94  A    between atoms: _229  and  _231
REMARK   95  A    between atoms: _231  and  _232
REMARK   96  A    between atoms: _231  and  _234
REMARK   97  A    between atoms: _234  and  _235
REMARK   98  A    between atoms: _240  and  _242
REMARK   99  A    between atoms: _242  and  _243
REMARK  100  A    between atoms: _242  and  _245
REMARK  101  A    between atoms: _245  and  _246
REMARK  102  A    between atoms: _249  and  _251
REMARK  103  A    between atoms: _251  and  _252
REMARK  104  A    between atoms: _251  and  _254
REMARK  105  A    between atoms: _254  and  _255
REMARK  106  A    between atoms: _258  and  _260
REMARK  107  A    between atoms: _260  and  _261
REMARK  108  A    between atoms: _263  and  _265
REMARK  109  A    between atoms: _265  and  _266
REMARK  110  A    between atoms: _265  and  _268
REMARK  111  A    between atoms: _268  and  _269
REMARK  112  A    between atoms: _269  and  _270
REMARK  113  A    between atoms: _270  and  _271
REMARK  114  A    between atoms: _280  and  _282
REMARK  115  A    between atoms: _282  and  _283
REMARK  116  A    between atoms: _282  and  _285
REMARK  117  A    between atoms: _285  and  _286
REMARK  118  A    between atoms: _291  and  _293
REMARK  119  A    between atoms: _293  and  _294
REMARK  120  A    between atoms: _293  and  _296
REMARK  121  A    between atoms: _296  and  _297
REMARK  122  A    between atoms: _297  and  _298
REMARK  123  A    between atoms: _298  and  _299
REMARK  124  A    between atoms: _308  and  _310
REMARK  125  A    between atoms: _310  and  _311
REMARK  126  A    between atoms: _310  and  _313
REMARK  127  A    between atoms: _313  and  _314
REMARK  128  A    between atoms: _317  and  _319
REMARK  129  A    between atoms: _319  and  _320
REMARK  130  A    between atoms: _319  and  _322
REMARK  131  A    between atoms: _322  and  _323
REMARK  132  A    between atoms: _326  and  _328
REMARK  133  A    between atoms: _328  and  _329
REMARK  134  A    between atoms: _328  and  _331
REMARK  135  A    between atoms: _331  and  _332
REMARK  136  A    between atoms: _335  and  _337
REMARK  137  A    between atoms: _337  and  _338
REMARK  138  A    between atoms: _337  and  _340
REMARK  139  A    between atoms: _340  and  _341
REMARK  140  A    between atoms: _344  and  _346
REMARK  141  A    between atoms: _346  and  _347
REMARK  142  A    between atoms: _349  and  _351
REMARK  143  A    between atoms: _351  and  _352
REMARK  144  A    between atoms: _355  and  _357
REMARK  145  A    between atoms: _357  and  _358
REMARK  146  A    between atoms: _357  and  _360
REMARK  147  A    between atoms: _360  and  _361
REMARK  148  A    between atoms: _364  and  _366
REMARK  149  A    between atoms: _366  and  _367
REMARK  150  A    between atoms: _366  and  _369
REMARK  151  A    between atoms: _369  and  _370
REMARK  152  A    between atoms: _373  and  _375
REMARK  153  A    between atoms: _375  and  _376
REMARK  154  A    between atoms: _375  and  _378
REMARK  155  A    between atoms: _378  and  _379
REMARK  156  A    between atoms: _382  and  _384
REMARK  157  A    between atoms: _384  and  _385
REMARK  158  A    between atoms: _384  and  _387
REMARK  159  A    between atoms: _390  and  _392
REMARK  160  A    between atoms: _392  and  _393
REMARK  161  A    between atoms: _392  and  _395
REMARK  162  A    between atoms: _395  and  _396
REMARK  163  A    between atoms: _399  and  _401
REMARK  164  A    between atoms: _401  and  _402
REMARK  165  A    between atoms: _401  and  _404
REMARK  166  A    between atoms: _404  and  _405
REMARK  167  A    between atoms: _405  and  _406
REMARK  168  A    between atoms: _406  and  _407
REMARK  169  A    between atoms: _407  and  _408
REMARK  170  A    between atoms: _412  and  _414
REMARK  171  A    between atoms: _414  and  _415
REMARK  172  A    between atoms: _414  and  _417
REMARK  173  A    between atoms: _417  and  _418
REMARK  174  A    between atoms: _418  and  _419
REMARK  175  A    between atoms: _421  and  _423
REMARK  176  A    between atoms: _423  and  _424
REMARK  177  A    between atoms: _423  and  _426
REMARK  178  A    between atoms: _426  and  _427
REMARK  179  A    between atoms: _430  and  _432
REMARK  180  A    between atoms: _432  and  _433
REMARK  181  A    between atoms: _435  and  _437
REMARK  182  A    between atoms: _437  and  _438
REMARK  183  A    between atoms: _440  and  _442
REMARK  184  A    between atoms: _442  and  _443
REMARK  185  A    between atoms: _442  and  _445
REMARK  186  A    between atoms: _445  and  _446
REMARK  187  A    between atoms: _449  and  _451
REMARK  188  A    between atoms: _451  and  _452
REMARK  189  A    between atoms: _454  and  _456
REMARK  190  A    between atoms: _456  and  _457
REMARK  191  A    between atoms: _459  and  _461
REMARK  192  A    between atoms: _461  and  _462
REMARK  193  A    between atoms: _461  and  _464
REMARK  194  A    between atoms: _464  and  _465
REMARK  195  A    between atoms: _468  and  _470
REMARK  196  A    between atoms: _470  and  _471
REMARK  197  A    between atoms: _470  and  _473
REMARK  198  A    between atoms: _476  and  _478
REMARK  199  A    between atoms: _478  and  _479
REMARK  200  A    between atoms: _478  and  _481
REMARK  201  A    between atoms: _481  and  _482
REMARK  202  A    between atoms: _486  and  _487
REMARK  203  A    between atoms: _492  and  _494
REMARK  204  A    between atoms: _494  and  _495
REMARK  205  A    between atoms: _494  and  _497
REMARK  206  A    between atoms: _497  and  _498
REMARK  207  A    between atoms: _502  and  _503
REMARK  208  A    between atoms: _508  and  _510
REMARK  209  A    between atoms: _510  and  _511
REMARK  210  A    between atoms: _510  and  _513
REMARK  211  A    between atoms: _516  and  _518
REMARK  212  A    between atoms: _518  and  _519
REMARK  213  A    between atoms: _518  and  _521
REMARK  214  A    between atoms: _521  and  _522
REMARK  215  A    between atoms: _527  and  _529
REMARK  216  A    between atoms: _529  and  _530
REMARK  217  A    between atoms: _529  and  _532
REMARK  218  A    between atoms: _532  and  _533
REMARK  219  A    between atoms: _536  and  _538
REMARK  220  A    between atoms: _538  and  _539
REMARK  221  A    between atoms: _538  and  _541
REMARK  222  A    between atoms: _541  and  _542
REMARK  223  A    between atoms: _545  and  _547
REMARK  224  A    between atoms: _547  and  _548
REMARK  225  A    between atoms: _550  and  _552
REMARK  226  A    between atoms: _552  and  _553
REMARK  227  A    between atoms: _552  and  _555
REMARK  228  A    between atoms: _555  and  _556
REMARK  229  A    between atoms: _556  and  _557
REMARK  230  A    between atoms: _557  and  _558
REMARK  231  A    between atoms: _567  and  _569
REMARK  232  A    between atoms: _569  and  _570
REMARK  233  A    between atoms: _569  and  _572
REMARK  234  A    between atoms: _572  and  _573
REMARK                            x       y       z     vdW  Elec       q    Type
REMARK                         _______ _______ _______ _____ _____    ______ ____
ROOT
ATOM      1  CA  LEU A   1      -7.962  12.351  -6.571  0.00  0.00    +0.133 C 
ENDROOT
BRANCH   1   2
ATOM      2  N   LEU A   1      -8.691  11.131  -6.894  0.00  0.00    -0.239 NA
ATOM      3  H   LEU A   1      -9.305  11.132  -7.733  0.00  0.00    +0.142 HD
ENDBRANCH   1   2
BRANCH   1   4
ATOM      4  C   LEU A   1      -8.798  13.241  -5.664  0.00  0.00    +0.224 C 
ATOM      5  O   LEU A   1      -9.983  13.396  -5.949  0.00  0.00    -0.287 OA
ENDBRANCH   1   4
BRANCH   1   6
ATOM      6  CB  LEU A   1      -7.604  13.085  -7.849  0.00  0.00    +0.025 C 
BRANCH   6   7
ATOM      7  CG  LEU A   1      -6.885  12.258  -8.918  0.00  0.00    +0.002 C 
ATOM      8  CD2 LEU A   1      -5.643  11.586  -8.357  0.00  0.00    +0.000 C 
ATOM      9  CD1 LEU A   1      -6.529  13.139 -10.116  0.00  0.00    +0.000 C 
ENDBRANCH   6   7
ENDBRANCH   1   6
TORSDOF 4
REMARK  Name = ../refined-set-2016/3bgc/3bgc_pocket.pdb
REMARK  234 active torsions:
REMARK  status: ('A' for Active; 'I' for Inactive)
REMARK    1  A    between atoms: _1  and  _3
REMARK    2  A    between atoms: _3  and  _4
REMARK    3  A    between atoms: _3  and  _6
REMARK    4  A    between atoms: _6  and  _7
REMARK    5  A    between atoms: _7  and  _8
REMARK    6  A    between atoms: _8  and  _9
REMARK    7  A    between atoms: _18  and  _20
REMARK    8  A    between atoms: _20  and  _21
REMARK    9  A    between atoms: _20  and  _23
REMARK   10  A    between atoms: _23  and  _24
REMARK   11  A    between atoms: _27  and  _29
REMARK   12  A    between atoms: _29  and  _30
REMARK   13  A    between atoms: _29  and  _32
REMARK   14  A    between atoms: _32  and  _33
REMARK   15  A    between atoms: _36  and  _38
REMARK   16  A    between atoms: _38  and  _39
REMARK   17  A    between atoms: _38  and  _41
REMARK   18  A    between atoms: _41  and  _42
REMARK   19  A    between atoms: _45  and  _47
REMARK   20  A    between atoms: _47  and  _48
REMARK   21  A    between atoms: _50  and  _52
REMARK   22  A    between atoms: _52  and  _53
REMARK   23  A    between atoms: _56  and  _58
REMARK   24  A    between atoms: _58  and  _59
REMARK   25  A    between atoms: _58  and  _61
REMARK   26  A    between atoms: _61  and  _62
REMARK   27  A    between atoms: _65  and  _67
REMARK   28  A    between atoms: _67  and  _68
REMARK   29  A    between atoms: _67  and  _70
REMARK   30  A    between atoms: _70  and  _71
REMARK   31  A    between atoms: _74  and  _76
REMARK   32  A    between atoms: _76  and  _77
REMARK   33  A    between atoms: _76  and  _79
REMARK   34  A    between atoms: _79  and  _80
REMARK   35  A    between atoms: _83  and  _85
REMARK   36  A    between atoms: _85  and  _86
REMARK   37  A    between atoms: _85  and  _88
REMARK   38  A    between atoms: _91  and  _93
REMARK   39  A    between atoms: _93  and  _94
REMARK   40  A    between atoms: _93  and  _96
REMARK   41  A    between atoms: _96  and  _97
REMARK   42  A    between atoms: _100  and  _102
REMARK   43  A    between atoms: _102  and  _103
REMARK   44  A    between atoms: _102  and  _105
REMARK   45  A    between atoms: _105  and  _106
REMARK   46  A    between atoms: _106  and  _107
REMARK   47  A    between atoms: _107  and  _108
REMARK   48  A    between atoms: _108  and  _109
REMARK   49  A    between atoms: _113  and  _115
REMARK   50  A    between atoms: _115  and  _116
REMARK   51  A    between atoms: _115  and  _118
REMARK   52  A    between atoms: _118  and  _119
REMARK   53  A    between atoms: _119  and  _120
REMARK   54  A    between atoms: _122  and  _124
REMARK   55  A    between atoms: _124  and  _125
REMARK   56  A    between atoms: _124  and  _127
REMARK   57  A    between atoms: _127  and  _128
REMARK   58  A    between atoms: _131  and  _133
REMARK   59  A    between atoms: _133  and  _134
REMARK   60  A    between atoms: _136  and  _138
REMARK   61  A    between atoms: _138  and  _139
REMARK   62  A    between atoms: _141  and  _143
REMARK   63  A    between atoms: _143  and  _144
REMARK   64  A    between atoms: _143  and  _146
REMARK   65  A    between atoms: _146  and  _147
REMARK   66  A    between atoms: _150  and  _152
REMARK   67  A    between atoms: _152  and  _153
REMARK   68  A    between atoms: _155  and  _157
REMARK   69  A    between atoms: _157  and  _158
REMARK   70  A    between atoms: _160  and  _162
REMARK   71  A    between atoms: _162  and  _163
REMARK   72  A    between atoms: _162  and  _165
REMARK   73  A    between atoms: _165  and  _166
REMARK   74  A    between atoms: _172  and  _174
REMARK   75  A    between atoms: _174  and  _175
REMARK   76  A    between atoms: _174  and  _177
REMARK   77  A    between atoms: _177  and  _178
REMARK   78  A    between atoms: _181  and  _183
REMARK   79  A    between atoms: _183  and  _184
REMARK   80  A    between atoms: _183  and  _186
REMARK   81  A    between atoms: _189  and  _191
REMARK   82  A    between atoms: _191  and  _192
REMARK   83  A    between atoms: _191  and  _194
REMARK   84  A    between atoms: _194  and  _195
REMARK   85  A    between atoms: _199  and  _200
REMARK   86  A    between atoms: _205  and  _207
REMARK   87  A    between atoms: _207  and  _208
REMARK   88  A    between atoms: _207  and  _210
REMARK   89  A    between atoms: _210  and  _211
REMARK   90  A    between atoms: _215  and  _216
REMARK   91  A    between atoms: _221  and  _223
REMARK   92  A    between atoms: _223  and  _224
REMARK   93  A    between atoms: _223  and  _226
REMARK   94  A    between atoms: _229  and  _231
REMARK   95  A    between atoms: _231  and  _232
REMARK   96  A    between atoms: _231  and  _234
REMARK   97  A    between atoms: _234  and  _235
REMARK   98  A    between atoms: _240  and  _242
REMARK   99  A    between atoms: _242  and  _243
REMARK  100  A    between atoms: _242  and  _245
REMARK  101  A    between atoms: _245  and  _246
REMARK  102  A    between atoms: _249  and  _251
REMARK  103  A    between atoms: _251  and  _252
REMARK  104  A    between atoms: _251  and  _254
REMARK  105  A    between atoms: _254  and  _255
REMARK  106  A    between atoms: _258  and  _260
REMARK  107  A    between atoms: _260  and  _261
REMARK  108  A    between atoms: _263  and  _265
REMARK  109  A    between atoms: _265  and  _266
REMARK  110  A    between atoms: _265  and  _268
REMARK  111  A    between atoms: _268  and  _269
REMARK  112  A    between atoms: _269  and  _270
REMARK  113  A    between atoms: _270  and  _271
REMARK  114  A    between atoms: _280  and  _282
REMARK  115  A    between atoms: _282  and  _283
REMARK  116  A    between atoms: _282  and  _285
REMARK  117  A    between atoms: _285  and  _286
REMARK  118  A    between atoms: _291  and  _293
REMARK  119  A    between atoms: _293  and  _294
REMARK  120  A    between atoms: _293  and  _296
REMARK  121  A    between atoms: _296  and  _297
REMARK  122  A    between atoms: _297  and  _298
REMARK  123  A    between atoms: _298  and  _299
REMARK  124  A    between atoms: _308  and  _310
REMARK  125  A    between atoms: _310  and  _311
REMARK  126  A    between atoms: _310  and  _313
REMARK  127  A    between atoms: _313  and  _314
REMARK  128  A    between atoms: _317  and  _319
REMARK  129  A    between atoms: _319  and  _320
REMARK  130  A    between atoms: _319  and  _322
REMARK  131  A    between atoms: _322  and  _323
REMARK  132  A    between atoms: _326  and  _328
REMARK  133  A    between atoms: _328  and  _329
REMARK  134  A    between atoms: _328  and  _331
REMARK  135  A    between atoms: _331  and  _332
REMARK  136  A    between atoms: _335  and  _337
REMARK  137  A    between atoms: _337  and  _338
REMARK  138  A    between atoms: _337  and  _340
REMARK  139  A    between atoms: _340  and  _341
REMARK  140  A    between atoms: _344  and  _346
REMARK  141  A    between atoms: _346  and  _347
REMARK  142  A    between atoms: _349  and  _351
REMARK  143  A    between atoms: _351  and  _352
REMARK  144  A    between atoms: _355  and  _357
REMARK  145  A    between atoms: _357  and  _358
REMARK  146  A    between atoms: _357  and  _360
REMARK  147  A    between atoms: _360  and  _361
REMARK  148  A    between atoms: _364  and  _366
REMARK  149  A    between atoms: _366  and  _367
REMARK  150  A    between atoms: _366  and  _369
REMARK  151  A    between atoms: _369  and  _370
REMARK  152  A    between atoms: _373  and  _375
REMARK  153  A    between atoms: _375  and  _376
REMARK  154  A    between atoms: _375  and  _378
REMARK  155  A    between atoms: _378  and  _379
REMARK  156  A    between atoms: _382  and  _384
REMARK  157  A    between atoms: _384  and  _385
REMARK  158  A    between atoms: _384  and  _387
REMARK  159  A    between atoms: _390  and  _392
REMARK  160  A    between atoms: _392  and  _393
REMARK  161  A    between atoms: _392  and  _395
REMARK  162  A    between atoms: _395  and  _396
REMARK  163  A    between atoms: _399  and  _401
REMARK  164  A    between atoms: _401  and  _402
REMARK  165  A    between atoms: _401  and  _404
REMARK  166  A    between atoms: _404  and  _405
REMARK  167  A    between atoms: _405  and  _406
REMARK  168  A    between atoms: _406  and  _407
REMARK  169  A    between atoms: _407  and  _408
REMARK  170  A    between atoms: _412  and  _414
REMARK  171  A    between atoms: _414  and  _415
REMARK  172  A    between atoms: _414  and  _417
REMARK  173  A    between atoms: _417  and  _418
REMARK  174  A    between atoms: _418  and  _419
REMARK  175  A    between atoms: _421  and  _423
REMARK  176  A    between atoms: _423  and  _424
REMARK  177  A    between atoms: _423  and  _426
REMARK  178  A    between atoms: _426  and  _427
REMARK  179  A    between atoms: _430  and  _432
REMARK  180  A    between atoms: _432  and  _433
REMARK  181  A    between atoms: _435  and  _437
REMARK  182  A    between atoms: _437  and  _438
REMARK  183  A    between atoms: _440  and  _442
REMARK  184  A    between atoms: _442  and  _443
REMARK  185  A    between atoms: _442  and  _445
REMARK  186  A    between atoms: _445  and  _446
REMARK  187  A    between atoms: _449  and  _451
REMARK  188  A    between atoms: _451  and  _452
REMARK  189  A    between atoms: _454  and  _456
REMARK  190  A    between atoms: _456  and  _457
REMARK  191  A    between atoms: _459  and  _461
REMARK  192  A    between atoms: _461  and  _462
REMARK  193  A    between atoms: _461  and  _464
REMARK  194  A    between atoms: _464  and  _465
REMARK  195  A    between atoms: _468  and  _470
REMARK  196  A    between atoms: _470  and  _471
REMARK  197  A    between atoms: _470  and  _473
REMARK  198  A    between atoms: _476  and  _478
REMARK  199  A    between atoms: _478  and  _479
REMARK  200  A    between atoms: _478  and  _481
REMARK  201  A    between atoms: _481  and  _482
REMARK  202  A    between atoms: _486  and  _487
REMARK  203  A    between atoms: _492  and  _494
REMARK  204  A    between atoms: _494  and  _495
REMARK  205  A    between atoms: _494  and  _497
REMARK  206  A    between atoms: _497  and  _498
REMARK  207  A    between atoms: _502  and  _503
REMARK  208  A    between atoms: _508  and  _510
REMARK  209  A    between atoms: _510  and  _511
REMARK  210  A    between atoms: _510  and  _513
REMARK  211  A    between atoms: _516  and  _518
REMARK  212  A    between atoms: _518  and  _519
REMARK  213  A    between atoms: _518  and  _521
REMARK  214  A    between atoms: _521  and  _522
REMARK  215  A    between atoms: _527  and  _529
REMARK  216  A    between atoms: _529  and  _530
REMARK  217  A    between atoms: _529  and  _532
REMARK  218  A    between atoms: _532  and  _533
REMARK  219  A    between atoms: _536  and  _538
REMARK  220  A    between atoms: _538  and  _539
REMARK  221  A    between atoms: _538  and  _541
REMARK  222  A    between atoms: _541  and  _542
REMARK  223  A    between atoms: _545  and  _547
REMARK  224  A    between atoms: _547  and  _548
REMARK  225  A    between atoms: _550  and  _552
REMARK  226  A    between atoms: _552  and  _553
REMARK  227  A    between atoms: _552  and  _555
REMARK  228  A    between atoms: _555  and  _556
REMARK  229  A    between atoms: _556  and  _557
REMARK  230  A    between atoms: _557  and  _558
REMARK  231  A    between atoms: _567  and  _569
REMARK  232  A    between atoms: _569  and  _570
REMARK  233  A    between atoms: _569  and  _572
REMARK  234  A    between atoms: _572  and  _573
REMARK                            x       y       z     vdW  Elec       q    Type
REMARK                         _______ _______ _______ _____ _____    ______ ____
ROOT
ATOM      1  CA  ILE A   6     -15.981  14.742 -11.277  0.00  0.00    +0.149 C 
ENDROOT
BRANCH   1   2
ATOM      2  C   ILE A   6     -15.678  13.257 -11.259  0.00  0.00    +0.241 C 
ATOM      3  O   ILE A   6     -14.712  12.838 -10.626  0.00  0.00    -0.273 OA
ATOM      4  N   ILE A   7     -16.479  12.482 -11.973  0.00  0.00    -0.297 N 
ATOM      5  H   ILE A   7     -17.388  12.856 -12.314  0.00  0.00    +0.150 HD
BRANCH   4   6
ATOM      6  CA  ILE A   7     -16.103  11.117 -12.285  0.00  0.00    +0.149 C 
BRANCH   6   7
ATOM      7  C   ILE A   7     -15.412  11.058 -13.658  0.00  0.00    +0.241 C 
ATOM      8  N   GLY A   8     -14.166  10.611 -13.652  0.00  0.00    -0.295 N 
ATOM      9  H   GLY A   8     -13.787  10.331 -12.725  0.00  0.00    +0.150 HD
ATOM     10  O   ILE A   7     -16.021  11.426 -14.661  0.00  0.00    -0.273 OA
BRANCH   8  11
ATOM     11  CA  GLY A   8     -13.269  10.464 -14.772  0.00  0.00    +0.176 C 
BRANCH  11  12
ATOM     12  C   GLY A   8     -13.322   9.111 -15.453  0.00  0.00    +0.243 C 
ATOM     13  O   GLY A   8     -13.963   8.177 -14.970  0.00  0.00    -0.273 OA
ATOM     14  N   ARG A   9     -12.645   9.026 -16.591  0.00  0.00    -0.297 N 
ATOM     15  H   ARG A   9     -12.062   9.837 -16.881  0.00  0.00    +0.150 HD
BRANCH  14  16
ATOM     16  CA  ARG A   9     -12.678   7.860 -17.450  0.00  0.00    +0.149 C 
BRANCH  16  17
ATOM     17  C   ARG A   9     -12.215   6.635 -16.665  0.00  0.00    +0.241 C 
ATOM     18  N   ASN A  10     -11.295   6.824 -15.727  0.00  0.00    -0.298 N 
ATOM     19  H   ASN A  10     -10.989   7.788 -15.486  0.00  0.00    +0.150 HD
ATOM     20  O   ARG A   9     -12.676   5.525 -16.892  0.00  0.00    -0.273 OA
BRANCH  18  21
ATOM     21  CA  ASN A  10     -10.711   5.676 -15.032  0.00  0.00    +0.146 C 
BRANCH  21  22
ATOM     22  C   ASN A  10     -11.761   4.870 -14.293  0.00  0.00    +0.227 C 
ATOM     23  O   ASN A  10     -11.583   3.662 -14.118  0.00  0.00    -0.286 OA
ENDBRANCH  21  22
BRANCH  21  24
ATOM     24  CB  ASN A  10      -9.592   6.150 -14.100  0.00  0.00    +0.112 C 
BRANCH  24  25
ATOM     25  CG  ASN A  10     -10.144   6.652 -12.781  0.00  0.00    +0.222 C 
ATOM     26  ND2 ASN A  10      -9.808   5.910 -11.736  0.00  0.00    -0.329 N 
ATOM     27 HD21 ASN A  10     -10.156   6.159 -10.788  0.00  0.00    +0.145 HD
ATOM     28 HD22 ASN A  10      -9.197   5.078 -11.864  0.00  0.00    +0.145 HD
ATOM     29  OD1 ASN A  10     -10.859   7.654 -12.746  0.00  0.00    -0.275 OA
ENDBRANCH  24  25
ENDBRANCH  21  24
ENDBRANCH  18  21
ENDBRANCH  16  17
BRANCH  16  30
ATOM     30  CB  ARG A   9     -11.797   8.031 -18.704  0.00  0.00    +0.033 C 
BRANCH  30  31
ATOM     31  CG  ARG A   9     -12.290   9.085 -19.692  0.00  0.00    +0.045 C 
BRANCH  31  32
ATOM     32  CD  ARG A   9     -11.478   9.075 -20.980  0.00  0.00    +0.174 C 
BRANCH  32  33
ATOM     33  NE  ARG A   9     -10.073   9.373 -20.754  0.00  0.00    -0.265 N 
ATOM     34  HE  ARG A   9      -9.859  10.383 -20.633  0.00  0.00    +0.259 HD
ATOM     35  CZ  ARG A   9      -9.023   8.575 -20.677  0.00  0.00    +0.342 C 
ATOM     36  NH2 ARG A   9      -7.827   9.128 -20.461  0.00  0.00    -0.292 N 
ATOM     37 HH21 ARG A   9      -7.742  10.159 -20.359  0.00  0.00    +0.255 HD
ATOM     38 HH22 ARG A   9      -6.981   8.527 -20.395  0.00  0.00    +0.255 HD
ATOM     39  NH1 ARG A   9      -9.088   7.254 -20.802  0.00  0.00    -0.292 N 
ATOM     40 HH11 ARG A   9      -8.223   6.682 -20.731  0.00  0.00    +0.255 HD
ATOM     41 HH12 ARG A   9     -10.004   6.792 -20.971  0.00  0.00    +0.255 HD
ENDBRANCH  32  33
ENDBRANCH  31  32
ENDBRANCH  30  31
ENDBRANCH  16  30
ENDBRANCH  14  16
ENDBRANCH  11  12
ENDBRANCH   8  11
ENDBRANCH   6   7
BRANCH   6  42
ATOM     42  CB  ILE A   7     -17.297  10.154 -12.266  0.00  0.00    +0.027 C 
ATOM     43  CG2 ILE A   7     -16.823   8.745 -12.539  0.00  0.00    +0.002 C 
BRANCH  42  44
ATOM     44  CG1 ILE A   7     -18.123  10.183 -10.965  0.00  0.00    +0.002 C 
ATOM     45  CD1 ILE A   7     -17.285   9.933  -9.725  0.00  0.00    +0.000 C 
ENDBRANCH  42  44
ENDBRANCH   6  42
ENDBRANCH   4   6
ENDBRANCH   1   2
BRANCH   1  47
ATOM     46  C   ASN A   5     -17.099  15.950  -9.510  0.00  0.00    +0.241 C 
ATOM     47  N   ILE A   6     -16.055  15.254  -9.926  0.00  0.00    -0.297 N 
ATOM     48  H   ILE A   6     -15.270  15.071  -9.268  0.00  0.00    +0.150 HD
ATOM     49  O   ASN A   5     -18.121  16.137 -10.176  0.00  0.00    -0.273 OA
BRANCH  46  50
ATOM     50  CA  ASN A   5     -16.963  16.543  -8.105  0.00  0.00    +0.158 C 
BRANCH  50  52
ATOM     51  C   VAL A   4     -16.590  18.845  -8.834  0.00  0.00    +0.241 C 
ATOM     52  N   ASN A   5     -17.308  17.946  -8.184  0.00  0.00    -0.297 N 
ATOM     53  H   ASN A   5     -18.172  18.266  -7.701  0.00  0.00    +0.150 HD
ATOM     54  O   VAL A   4     -15.534  18.577  -9.394  0.00  0.00    -0.273 OA
BRANCH  51  55
ATOM     55  CA  VAL A   4     -17.132  20.277  -8.812  0.00  0.00    +0.149 C 
BRANCH  55  58
ATOM     56  C   PRO A   3     -16.127  22.344  -8.063  0.00  0.00    +0.241 C 
ATOM     57  O   PRO A   3     -17.185  22.622  -7.500  0.00  0.00    -0.273 OA
ATOM     58  N   VAL A   4     -16.010  21.224  -8.786  0.00  0.00    -0.297 N 
ATOM     59  H   VAL A   4     -15.140  21.028  -9.320  0.00  0.00    +0.150 HD
BRANCH  56  63
ATOM     60  C   THR A   2     -13.303  21.684  -7.174  0.00  0.00    +0.246 C 
ATOM     61  O   THR A   2     -14.030  21.462  -6.201  0.00  0.00    -0.273 OA
ATOM     62  N   PRO A   3     -13.666  22.561  -8.101  0.00  0.00    -0.272 N 
ATOM     63  CA  PRO A   3     -14.937  23.271  -7.951  0.00  0.00    +0.152 C 
ATOM     64  CB  PRO A   3     -14.926  24.262  -9.107  0.00  0.00    +0.031 C 
ATOM     65  CG  PRO A   3     -13.867  23.819 -10.050  0.00  0.00    +0.024 C 
ATOM     66  CD  PRO A   3     -12.919  22.936  -9.305  0.00  0.00    +0.094 C 
BRANCH  60  67
ATOM     67  CA  THR A   2     -11.967  20.987  -7.402  0.00  0.00    +0.176 C 
BRANCH  67  69
ATOM     68  C   PRO A   1     -10.605  21.945  -5.653  0.00  0.00    +0.239 C 
ATOM     69  N   THR A   2     -11.220  20.888  -6.158  0.00  0.00    -0.295 N 
ATOM     70  H   THR A   2     -11.169  19.976  -5.660  0.00  0.00    +0.150 HD
ATOM     71  O   PRO A   1     -10.581  23.011  -6.279  0.00  0.00    -0.274 OA
BRANCH  68  76
ATOM     72  N   PRO A   1      -9.066  20.673  -4.121  0.00  0.00    -0.210 NA
ATOM     73  CD  PRO A   1      -7.649  21.067  -4.041  0.00  0.00    +0.089 C 
ATOM     74  CG  PRO A   1      -7.699  22.507  -4.475  0.00  0.00    +0.021 C 
ATOM     75  CB  PRO A   1      -9.033  23.011  -4.029  0.00  0.00    +0.028 C 
ATOM     76  CA  PRO A   1      -9.965  21.818  -4.278  0.00  0.00    +0.149 C 
ENDBRANCH  68  76
ENDBRANCH  67  69
BRANCH  67  77
ATOM     77  CB  THR A   2     -12.225  19.606  -8.024  0.00  0.00    +0.137 C 
ATOM     78  CG2 THR A   2     -12.991  18.706  -7.068  0.00  0.00    +0.034 C 
BRANCH  77  79
ATOM     79  OG1 THR A   2     -13.055  19.768  -9.186  0.00  0.00    -0.382 OA
ATOM     80  HG1 THR A   2     -13.914  20.183  -8.921  0.00  0.00    +0.210 HD
ENDBRANCH  77  79
ENDBRANCH  67  77
ENDBRANCH  60  67
ENDBRANCH  56  63
ENDBRANCH  55  58
BRANCH  55  81
ATOM     81  CB  VAL A   4     -18.136  20.480  -9.958  0.00  0.00    +0.027 C 
ATOM     82  CG2 VAL A   4     -17.868  21.736 -10.782  0.00  0.00    +0.002 C 
ATOM     83  CG1 VAL A   4     -18.170  19.291 -10.903  0.00  0.00    +0.002 C 
ENDBRANCH  55  81
ENDBRANCH  51  55
ENDBRANCH  50  52
BRANCH  50  84
ATOM     84  CB  ASN A   5     -17.873  15.806  -7.142  0.00  0.00    +0.114 C 
BRANCH  84  85
ATOM     85  CG  ASN A   5     -17.646  16.153  -5.685  0.00  0.00    +0.222 C 
ATOM     86  ND2 ASN A   5     -18.690  15.916  -4.895  0.00  0.00    -0.329 N 
ATOM     87 HD21 ASN A   5     -18.630  16.125  -3.878  0.00  0.00    +0.145 HD
ATOM     88 HD22 ASN A   5     -19.566  15.522  -5.295  0.00  0.00    +0.145 HD
ATOM     89  OD1 ASN A   5     -16.575  16.616  -5.300  0.00  0.00    -0.275 OA
ENDBRANCH  84  85
ENDBRANCH  50  84
ENDBRANCH  46  50
ENDBRANCH   1  47
BRANCH   1  90
ATOM     90  CB  ILE A   6     -14.854  15.443 -12.058  0.00  0.00    +0.027 C 
ATOM     91  CG2 ILE A   6     -14.357  14.561 -13.186  0.00  0.00    +0.002 C 
BRANCH  90  92
ATOM     92  CG1 ILE A   6     -15.215  16.831 -12.592  0.00  0.00    +0.002 C 
ATOM     93  CD1 ILE A   6     -14.232  17.322 -13.638  0.00  0.00    +0.000 C 
ENDBRANCH  90  92
ENDBRANCH   1  90
TORSDOF 33
REMARK  Name = ../refined-set-2016/3bgc/3bgc_pocket.pdb
REMARK  234 active torsions:
REMARK  status: ('A' for Active; 'I' for Inactive)
REMARK    1  A    between atoms: _1  and  _3
REMARK    2  A    between atoms: _3  and  _4
REMARK    3  A    between atoms: _3  and  _6
REMARK    4  A    between atoms: _6  and  _7
REMARK    5  A    between atoms: _7  and  _8
REMARK    6  A    between atoms: _8  and  _9
REMARK    7  A    between atoms: _18  and  _20
REMARK    8  A    between atoms: _20  and  _21
REMARK    9  A    between atoms: _20  and  _23
REMARK   10  A    between atoms: _23  and  _24
REMARK   11  A    between atoms: _27  and  _29
REMARK   12  A    between atoms: _29  and  _30
REMARK   13  A    between atoms: _29  and  _32
REMARK   14  A    between atoms: _32  and  _33
REMARK   15  A    between atoms: _36  and  _38
REMARK   16  A    between atoms: _38  and  _39
REMARK   17  A    between atoms: _38  and  _41
REMARK   18  A    between atoms: _41  and  _42
REMARK   19  A    between atoms: _45  and  _47
REMARK   20  A    between atoms: _47  and  _48
REMARK   21  A    between atoms: _50  and  _52
REMARK   22  A    between atoms: _52  and  _53
REMARK   23  A    between atoms: _56  and  _58
REMARK   24  A    between atoms: _58  and  _59
REMARK   25  A    between atoms: _58  and  _61
REMARK   26  A    between atoms: _61  and  _62
REMARK   27  A    between atoms: _65  and  _67
REMARK   28  A    between atoms: _67  and  _68
REMARK   29  A    between atoms: _67  and  _70
REMARK   30  A    between atoms: _70  and  _71
REMARK   31  A    between atoms: _74  and  _76
REMARK   32  A    between atoms: _76  and  _77
REMARK   33  A    between atoms: _76  and  _79
REMARK   34  A    between atoms: _79  and  _80
REMARK   35  A    between atoms: _83  and  _85
REMARK   36  A    between atoms: _85  and  _86
REMARK   37  A    between atoms: _85  and  _88
REMARK   38  A    between atoms: _91  and  _93
REMARK   39  A    between atoms: _93  and  _94
REMARK   40  A    between atoms: _93  and  _96
REMARK   41  A    between atoms: _96  and  _97
REMARK   42  A    between atoms: _100  and  _102
REMARK   43  A    between atoms: _102  and  _103
REMARK   44  A    between atoms: _102  and  _105
REMARK   45  A    between atoms: _105  and  _106
REMARK   46  A    between atoms: _106  and  _107
REMARK   47  A    between atoms: _107  and  _108
REMARK   48  A    between atoms: _108  and  _109
REMARK   49  A    between atoms: _113  and  _115
REMARK   50  A    between atoms: _115  and  _116
REMARK   51  A    between atoms: _115  and  _118
REMARK   52  A    between atoms: _118  and  _119
REMARK   53  A    between atoms: _119  and  _120
REMARK   54  A    between atoms: _122  and  _124
REMARK   55  A    between atoms: _124  and  _125
REMARK   56  A    between atoms: _124  and  _127
REMARK   57  A    between atoms: _127  and  _128
REMARK   58  A    between atoms: _131  and  _133
REMARK   59  A    between atoms: _133  and  _134
REMARK   60  A    between atoms: _136  and  _138
REMARK   61  A    between atoms: _138  and  _139
REMARK   62  A    between atoms: _141  and  _143
REMARK   63  A    between atoms: _143  and  _144
REMARK   64  A    between atoms: _143  and  _146
REMARK   65  A    between atoms: _146  and  _147
REMARK   66  A    between atoms: _150  and  _152
REMARK   67  A    between atoms: _152  and  _153
REMARK   68  A    between atoms: _155  and  _157
REMARK   69  A    between atoms: _157  and  _158
REMARK   70  A    between atoms: _160  and  _162
REMARK   71  A    between atoms: _162  and  _163
REMARK   72  A    between atoms: _162  and  _165
REMARK   73  A    between atoms: _165  and  _166
REMARK   74  A    between atoms: _172  and  _174
REMARK   75  A    between atoms: _174  and  _175
REMARK   76  A    between atoms: _174  and  _177
REMARK   77  A    between atoms: _177  and  _178
REMARK   78  A    between atoms: _181  and  _183
REMARK   79  A    between atoms: _183  and  _184
REMARK   80  A    between atoms: _183  and  _186
REMARK   81  A    between atoms: _189  and  _191
REMARK   82  A    between atoms: _191  and  _192
REMARK   83  A    between atoms: _191  and  _194
REMARK   84  A    between atoms: _194  and  _195
REMARK   85  A    between atoms: _199  and  _200
REMARK   86  A    between atoms: _205  and  _207
REMARK   87  A    between atoms: _207  and  _208
REMARK   88  A    between atoms: _207  and  _210
REMARK   89  A    between atoms: _210  and  _211
REMARK   90  A    between atoms: _215  and  _216
REMARK   91  A    between atoms: _221  and  _223
REMARK   92  A    between atoms: _223  and  _224
REMARK   93  A    between atoms: _223  and  _226
REMARK   94  A    between atoms: _229  and  _231
REMARK   95  A    between atoms: _231  and  _232
REMARK   96  A    between atoms: _231  and  _234
REMARK   97  A    between atoms: _234  and  _235
REMARK   98  A    between atoms: _240  and  _242
REMARK   99  A    between atoms: _242  and  _243
REMARK  100  A    between atoms: _242  and  _245
REMARK  101  A    between atoms: _245  and  _246
REMARK  102  A    between atoms: _249  and  _251
REMARK  103  A    between atoms: _251  and  _252
REMARK  104  A    between atoms: _251  and  _254
REMARK  105  A    between atoms: _254  and  _255
REMARK  106  A    between atoms: _258  and  _260
REMARK  107  A    between atoms: _260  and  _261
REMARK  108  A    between atoms: _263  and  _265
REMARK  109  A    between atoms: _265  and  _266
REMARK  110  A    between atoms: _265  and  _268
REMARK  111  A    between atoms: _268  and  _269
REMARK  112  A    between atoms: _269  and  _270
REMARK  113  A    between atoms: _270  and  _271
REMARK  114  A    between atoms: _280  and  _282
REMARK  115  A    between atoms: _282  and  _283
REMARK  116  A    between atoms: _282  and  _285
REMARK  117  A    between atoms: _285  and  _286
REMARK  118  A    between atoms: _291  and  _293
REMARK  119  A    between atoms: _293  and  _294
REMARK  120  A    between atoms: _293  and  _296
REMARK  121  A    between atoms: _296  and  _297
REMARK  122  A    between atoms: _297  and  _298
REMARK  123  A    between atoms: _298  and  _299
REMARK  124  A    between atoms: _308  and  _310
REMARK  125  A    between atoms: _310  and  _311
REMARK  126  A    between atoms: _310  and  _313
REMARK  127  A    between atoms: _313  and  _314
REMARK  128  A    between atoms: _317  and  _319
REMARK  129  A    between atoms: _319  and  _320
REMARK  130  A    between atoms: _319  and  _322
REMARK  131  A    between atoms: _322  and  _323
REMARK  132  A    between atoms: _326  and  _328
REMARK  133  A    between atoms: _328  and  _329
REMARK  134  A    between atoms: _328  and  _331
REMARK  135  A    between atoms: _331  and  _332
REMARK  136  A    between atoms: _335  and  _337
REMARK  137  A    between atoms: _337  and  _338
REMARK  138  A    between atoms: _337  and  _340
REMARK  139  A    between atoms: _340  and  _341
REMARK  140  A    between atoms: _344  and  _346
REMARK  141  A    between atoms: _346  and  _347
REMARK  142  A    between atoms: _349  and  _351
REMARK  143  A    between atoms: _351  and  _352
REMARK  144  A    between atoms: _355  and  _357
REMARK  145  A    between atoms: _357  and  _358
REMARK  146  A    between atoms: _357  and  _360
REMARK  147  A    between atoms: _360  and  _361
REMARK  148  A    between atoms: _364  and  _366
REMARK  149  A    between atoms: _366  and  _367
REMARK  150  A    between atoms: _366  and  _369
REMARK  151  A    between atoms: _369  and  _370
REMARK  152  A    between atoms: _373  and  _375
REMARK  153  A    between atoms: _375  and  _376
REMARK  154  A    between atoms: _375  and  _378
REMARK  155  A    between atoms: _378  and  _379
REMARK  156  A    between atoms: _382  and  _384
REMARK  157  A    between atoms: _384  and  _385
REMARK  158  A    between atoms: _384  and  _387
REMARK  159  A    between atoms: _390  and  _392
REMARK  160  A    between atoms: _392  and  _393
REMARK  161  A    between atoms: _392  and  _395
REMARK  162  A    between atoms: _395  and  _396
REMARK  163  A    between atoms: _399  and  _401
REMARK  164  A    between atoms: _401  and  _402
REMARK  165  A    between atoms: _401  and  _404
REMARK  166  A    between atoms: _404  and  _405
REMARK  167  A    between atoms: _405  and  _406
REMARK  168  A    between atoms: _406  and  _407
REMARK  169  A    between atoms: _407  and  _408
REMARK  170  A    between atoms: _412  and  _414
REMARK  171  A    between atoms: _414  and  _415
REMARK  172  A    between atoms: _414  and  _417
REMARK  173  A    between atoms: _417  and  _418
REMARK  174  A    between atoms: _418  and  _419
REMARK  175  A    between atoms: _421  and  _423
REMARK  176  A    between atoms: _423  and  _424
REMARK  177  A    between atoms: _423  and  _426
REMARK  178  A    between atoms: _426  and  _427
REMARK  179  A    between atoms: _430  and  _432
REMARK  180  A    between atoms: _432  and  _433
REMARK  181  A    between atoms: _435  and  _437
REMARK  182  A    between atoms: _437  and  _438
REMARK  183  A    between atoms: _440  and  _442
REMARK  184  A    between atoms: _442  and  _443
REMARK  185  A    between atoms: _442  and  _445
REMARK  186  A    between atoms: _445  and  _446
REMARK  187  A    between atoms: _449  and  _451
REMARK  188  A    between atoms: _451  and  _452
REMARK  189  A    between atoms: _454  and  _456
REMARK  190  A    between atoms: _456  and  _457
REMARK  191  A    between atoms: _459  and  _461
REMARK  192  A    between atoms: _461  and  _462
REMARK  193  A    between atoms: _461  and  _464
REMARK  194  A    between atoms: _464  and  _465
REMARK  195  A    between atoms: _468  and  _470
REMARK  196  A    between atoms: _470  and  _471
REMARK  197  A    between atoms: _470  and  _473
REMARK  198  A    between atoms: _476  and  _478
REMARK  199  A    between atoms: _478  and  _479
REMARK  200  A    between atoms: _478  and  _481
REMARK  201  A    between atoms: _481  and  _482
REMARK  202  A    between atoms: _486  and  _487
REMARK  203  A    between atoms: _492  and  _494
REMARK  204  A    between atoms: _494  and  _495
REMARK  205  A    between atoms: _494  and  _497
REMARK  206  A    between atoms: _497  and  _498
REMARK  207  A    between atoms: _502  and  _503
REMARK  208  A    between atoms: _508  and  _510
REMARK  209  A    between atoms: _510  and  _511
REMARK  210  A    between atoms: _510  and  _513
REMARK  211  A    between atoms: _516  and  _518
REMARK  212  A    between atoms: _518  and  _519
REMARK  213  A    between atoms: _518  and  _521
REMARK  214  A    between atoms: _521  and  _522
REMARK  215  A    between atoms: _527  and  _529
REMARK  216  A    between atoms: _529  and  _530
REMARK  217  A    between atoms: _529  and  _532
REMARK  218  A    between atoms: _532  and  _533
REMARK  219  A    between atoms: _536  and  _538
REMARK  220  A    between atoms: _538  and  _539
REMARK  221  A    between atoms: _538  and  _541
REMARK  222  A    between atoms: _541  and  _542
REMARK  223  A    between atoms: _545  and  _547
REMARK  224  A    between atoms: _547  and  _548
REMARK  225  A    between atoms: _550  and  _552
REMARK  226  A    between atoms: _552  and  _553
REMARK  227  A    between atoms: _552  and  _555
REMARK  228  A    between atoms: _555  and  _556
REMARK  229  A    between atoms: _556  and  _557
REMARK  230  A    between atoms: _557  and  _558
REMARK  231  A    between atoms: _567  and  _569
REMARK  232  A    between atoms: _569  and  _570
REMARK  233  A    between atoms: _569  and  _572
REMARK  234  A    between atoms: _572  and  _573
REMARK                            x       y       z     vdW  Elec       q    Type
REMARK                         _______ _______ _______ _____ _____    ______ ____
ROOT
ATOM      1  NE  ARG A   1      -5.619  12.571 -22.614  0.00  0.00    -0.265 N 
ATOM      2  CZ  ARG A   1      -5.410  13.167 -21.455  0.00  0.00    +0.342 C 
ATOM      3  NH2 ARG A   1      -6.394  13.765 -20.795  0.00  0.00    -0.292 N 
ATOM      4 HH21 ARG A   1      -6.203  14.228 -19.883  0.00  0.00    +0.255 HD
ATOM      5 HH22 ARG A   1      -7.356  13.771 -21.189  0.00  0.00    +0.255 HD
ATOM      6  NH1 ARG A   1      -4.182  13.164 -20.937  0.00  0.00    -0.292 N 
ATOM      7 HH11 ARG A   1      -4.001  13.629 -20.025  0.00  0.00    +0.255 HD
ATOM      8 HH12 ARG A   1      -3.404  12.696 -21.445  0.00  0.00    +0.255 HD
ATOM      9  HE  ARG A   1      -4.782  12.127 -23.042  0.00  0.00    +0.259 HD
ENDROOT
BRANCH   1  10
ATOM     10  CD  ARG A   1      -6.842  12.445 -23.376  0.00  0.00    +0.174 C 
BRANCH  10  11
ATOM     11  CG  ARG A   1      -7.546  11.102 -23.222  0.00  0.00    +0.045 C 
BRANCH  11  12
ATOM     12  CB  ARG A   1      -8.322  10.848 -24.505  0.00  0.00    +0.029 C 
BRANCH  12  13
ATOM     13  CA  ARG A   1      -9.343   9.720 -24.418  0.00  0.00    +0.133 C 
BRANCH  13  14
ATOM     14  N   ARG A   1      -8.627   8.457 -24.240  0.00  0.00    -0.239 NA
ATOM     15  H   ARG A   1      -7.589   8.435 -24.181  0.00  0.00    +0.142 HD
ENDBRANCH  13  14
BRANCH  13  16
ATOM     16  C   ARG A   1     -10.222   9.675 -25.658  0.00  0.00    +0.224 C 
ATOM     17  O   ARG A   1      -9.778   9.194 -26.712  0.00  0.00    -0.287 OA
ENDBRANCH  13  16
ENDBRANCH  12  13
ENDBRANCH  11  12
ENDBRANCH  10  11
ENDBRANCH   1  10
TORSDOF 6
REMARK  Name = ../refined-set-2016/3bgc/3bgc_pocket.pdb
REMARK  234 active torsions:
REMARK  status: ('A' for Active; 'I' for Inactive)
REMARK    1  A    between atoms: _1  and  _3
REMARK    2  A    between atoms: _3  and  _4
REMARK    3  A    between atoms: _3  and  _6
REMARK    4  A    between atoms: _6  and  _7
REMARK    5  A    between atoms: _7  and  _8
REMARK    6  A    between atoms: _8  and  _9
REMARK    7  A    between atoms: _18  and  _20
REMARK    8  A    between atoms: _20  and  _21
REMARK    9  A    between atoms: _20  and  _23
REMARK   10  A    between atoms: _23  and  _24
REMARK   11  A    between atoms: _27  and  _29
REMARK   12  A    between atoms: _29  and  _30
REMARK   13  A    between atoms: _29  and  _32
REMARK   14  A    between atoms: _32  and  _33
REMARK   15  A    between atoms: _36  and  _38
REMARK   16  A    between atoms: _38  and  _39
REMARK   17  A    between atoms: _38  and  _41
REMARK   18  A    between atoms: _41  and  _42
REMARK   19  A    between atoms: _45  and  _47
REMARK   20  A    between atoms: _47  and  _48
REMARK   21  A    between atoms: _50  and  _52
REMARK   22  A    between atoms: _52  and  _53
REMARK   23  A    between atoms: _56  and  _58
REMARK   24  A    between atoms: _58  and  _59
REMARK   25  A    between atoms: _58  and  _61
REMARK   26  A    between atoms: _61  and  _62
REMARK   27  A    between atoms: _65  and  _67
REMARK   28  A    between atoms: _67  and  _68
REMARK   29  A    between atoms: _67  and  _70
REMARK   30  A    between atoms: _70  and  _71
REMARK   31  A    between atoms: _74  and  _76
REMARK   32  A    between atoms: _76  and  _77
REMARK   33  A    between atoms: _76  and  _79
REMARK   34  A    between atoms: _79  and  _80
REMARK   35  A    between atoms: _83  and  _85
REMARK   36  A    between atoms: _85  and  _86
REMARK   37  A    between atoms: _85  and  _88
REMARK   38  A    between atoms: _91  and  _93
REMARK   39  A    between atoms: _93  and  _94
REMARK   40  A    between atoms: _93  and  _96
REMARK   41  A    between atoms: _96  and  _97
REMARK   42  A    between atoms: _100  and  _102
REMARK   43  A    between atoms: _102  and  _103
REMARK   44  A    between atoms: _102  and  _105
REMARK   45  A    between atoms: _105  and  _106
REMARK   46  A    between atoms: _106  and  _107
REMARK   47  A    between atoms: _107  and  _108
REMARK   48  A    between atoms: _108  and  _109
REMARK   49  A    between atoms: _113  and  _115
REMARK   50  A    between atoms: _115  and  _116
REMARK   51  A    between atoms: _115  and  _118
REMARK   52  A    between atoms: _118  and  _119
REMARK   53  A    between atoms: _119  and  _120
REMARK   54  A    between atoms: _122  and  _124
REMARK   55  A    between atoms: _124  and  _125
REMARK   56  A    between atoms: _124  and  _127
REMARK   57  A    between atoms: _127  and  _128
REMARK   58  A    between atoms: _131  and  _133
REMARK   59  A    between atoms: _133  and  _134
REMARK   60  A    between atoms: _136  and  _138
REMARK   61  A    between atoms: _138  and  _139
REMARK   62  A    between atoms: _141  and  _143
REMARK   63  A    between atoms: _143  and  _144
REMARK   64  A    between atoms: _143  and  _146
REMARK   65  A    between atoms: _146  and  _147
REMARK   66  A    between atoms: _150  and  _152
REMARK   67  A    between atoms: _152  and  _153
REMARK   68  A    between atoms: _155  and  _157
REMARK   69  A    between atoms: _157  and  _158
REMARK   70  A    between atoms: _160  and  _162
REMARK   71  A    between atoms: _162  and  _163
REMARK   72  A    between atoms: _162  and  _165
REMARK   73  A    between atoms: _165  and  _166
REMARK   74  A    between atoms: _172  and  _174
REMARK   75  A    between atoms: _174  and  _175
REMARK   76  A    between atoms: _174  and  _177
REMARK   77  A    between atoms: _177  and  _178
REMARK   78  A    between atoms: _181  and  _183
REMARK   79  A    between atoms: _183  and  _184
REMARK   80  A    between atoms: _183  and  _186
REMARK   81  A    between atoms: _189  and  _191
REMARK   82  A    between atoms: _191  and  _192
REMARK   83  A    between atoms: _191  and  _194
REMARK   84  A    between atoms: _194  and  _195
REMARK   85  A    between atoms: _199  and  _200
REMARK   86  A    between atoms: _205  and  _207
REMARK   87  A    between atoms: _207  and  _208
REMARK   88  A    between atoms: _207  and  _210
REMARK   89  A    between atoms: _210  and  _211
REMARK   90  A    between atoms: _215  and  _216
REMARK   91  A    between atoms: _221  and  _223
REMARK   92  A    between atoms: _223  and  _224
REMARK   93  A    between atoms: _223  and  _226
REMARK   94  A    between atoms: _229  and  _231
REMARK   95  A    between atoms: _231  and  _232
REMARK   96  A    between atoms: _231  and  _234
REMARK   97  A    between atoms: _234  and  _235
REMARK   98  A    between atoms: _240  and  _242
REMARK   99  A    between atoms: _242  and  _243
REMARK  100  A    between atoms: _242  and  _245
REMARK  101  A    between atoms: _245  and  _246
REMARK  102  A    between atoms: _249  and  _251
REMARK  103  A    between atoms: _251  and  _252
REMARK  104  A    between atoms: _251  and  _254
REMARK  105  A    between atoms: _254  and  _255
REMARK  106  A    between atoms: _258  and  _260
REMARK  107  A    between atoms: _260  and  _261
REMARK  108  A    between atoms: _263  and  _265
REMARK  109  A    between atoms: _265  and  _266
REMARK  110  A    between atoms: _265  and  _268
REMARK  111  A    between atoms: _268  and  _269
REMARK  112  A    between atoms: _269  and  _270
REMARK  113  A    between atoms: _270  and  _271
REMARK  114  A    between atoms: _280  and  _282
REMARK  115  A    between atoms: _282  and  _283
REMARK  116  A    between atoms: _282  and  _285
REMARK  117  A    between atoms: _285  and  _286
REMARK  118  A    between atoms: _291  and  _293
REMARK  119  A    between atoms: _293  and  _294
REMARK  120  A    between atoms: _293  and  _296
REMARK  121  A    between atoms: _296  and  _297
REMARK  122  A    between atoms: _297  and  _298
REMARK  123  A    between atoms: _298  and  _299
REMARK  124  A    between atoms: _308  and  _310
REMARK  125  A    between atoms: _310  and  _311
REMARK  126  A    between atoms: _310  and  _313
REMARK  127  A    between atoms: _313  and  _314
REMARK  128  A    between atoms: _317  and  _319
REMARK  129  A    between atoms: _319  and  _320
REMARK  130  A    between atoms: _319  and  _322
REMARK  131  A    between atoms: _322  and  _323
REMARK  132  A    between atoms: _326  and  _328
REMARK  133  A    between atoms: _328  and  _329
REMARK  134  A    between atoms: _328  and  _331
REMARK  135  A    between atoms: _331  and  _332
REMARK  136  A    between atoms: _335  and  _337
REMARK  137  A    between atoms: _337  and  _338
REMARK  138  A    between atoms: _337  and  _340
REMARK  139  A    between atoms: _340  and  _341
REMARK  140  A    between atoms: _344  and  _346
REMARK  141  A    between atoms: _346  and  _347
REMARK  142  A    between atoms: _349  and  _351
REMARK  143  A    between atoms: _351  and  _352
REMARK  144  A    between atoms: _355  and  _357
REMARK  145  A    between atoms: _357  and  _358
REMARK  146  A    between atoms: _357  and  _360
REMARK  147  A    between atoms: _360  and  _361
REMARK  148  A    between atoms: _364  and  _366
REMARK  149  A    between atoms: _366  and  _367
REMARK  150  A    between atoms: _366  and  _369
REMARK  151  A    between atoms: _369  and  _370
REMARK  152  A    between atoms: _373  and  _375
REMARK  153  A    between atoms: _375  and  _376
REMARK  154  A    between atoms: _375  and  _378
REMARK  155  A    between atoms: _378  and  _379
REMARK  156  A    between atoms: _382  and  _384
REMARK  157  A    between atoms: _384  and  _385
REMARK  158  A    between atoms: _384  and  _387
REMARK  159  A    between atoms: _390  and  _392
REMARK  160  A    between atoms: _392  and  _393
REMARK  161  A    between atoms: _392  and  _395
REMARK  162  A    between atoms: _395  and  _396
REMARK  163  A    between atoms: _399  and  _401
REMARK  164  A    between atoms: _401  and  _402
REMARK  165  A    between atoms: _401  and  _404
REMARK  166  A    between atoms: _404  and  _405
REMARK  167  A    between atoms: _405  and  _406
REMARK  168  A    between atoms: _406  and  _407
REMARK  169  A    between atoms: _407  and  _408
REMARK  170  A    between atoms: _412  and  _414
REMARK  171  A    between atoms: _414  and  _415
REMARK  172  A    between atoms: _414  and  _417
REMARK  173  A    between atoms: _417  and  _418
REMARK  174  A    between atoms: _418  and  _419
REMARK  175  A    between atoms: _421  and  _423
REMARK  176  A    between atoms: _423  and  _424
REMARK  177  A    between atoms: _423  and  _426
REMARK  178  A    between atoms: _426  and  _427
REMARK  179  A    between atoms: _430  and  _432
REMARK  180  A    between atoms: _432  and  _433
REMARK  181  A    between atoms: _435  and  _437
REMARK  182  A    between atoms: _437  and  _438
REMARK  183  A    between atoms: _440  and  _442
REMARK  184  A    between atoms: _442  and  _443
REMARK  185  A    between atoms: _442  and  _445
REMARK  186  A    between atoms: _445  and  _446
REMARK  187  A    between atoms: _449  and  _451
REMARK  188  A    between atoms: _451  and  _452
REMARK  189  A    between atoms: _454  and  _456
REMARK  190  A    between atoms: _456  and  _457
REMARK  191  A    between atoms: _459  and  _461
REMARK  192  A    between atoms: _461  and  _462
REMARK  193  A    between atoms: _461  and  _464
REMARK  194  A    between atoms: _464  and  _465
REMARK  195  A    between atoms: _468  and  _470
REMARK  196  A    between atoms: _470  and  _471
REMARK  197  A    between atoms: _470  and  _473
REMARK  198  A    between atoms: _476  and  _478
REMARK  199  A    between atoms: _478  and  _479
REMARK  200  A    between atoms: _478  and  _481
REMARK  201  A    between atoms: _481  and  _482
REMARK  202  A    between atoms: _486  and  _487
REMARK  203  A    between atoms: _492  and  _494
REMARK  204  A    between atoms: _494  and  _495
REMARK  205  A    between atoms: _494  and  _497
REMARK  206  A    between atoms: _497  and  _498
REMARK  207  A    between atoms: _502  and  _503
REMARK  208  A    between atoms: _508  and  _510
REMARK  209  A    between atoms: _510  and  _511
REMARK  210  A    between atoms: _510  and  _513
REMARK  211  A    between atoms: _516  and  _518
REMARK  212  A    between atoms: _518  and  _519
REMARK  213  A    between atoms: _518  and  _521
REMARK  214  A    between atoms: _521  and  _522
REMARK  215  A    between atoms: _527  and  _529
REMARK  216  A    between atoms: _529  and  _530
REMARK  217  A    between atoms: _529  and  _532
REMARK  218  A    between atoms: _532  and  _533
REMARK  219  A    between atoms: _536  and  _538
REMARK  220  A    between atoms: _538  and  _539
REMARK  221  A    between atoms: _538  and  _541
REMARK  222  A    between atoms: _541  and  _542
REMARK  223  A    between atoms: _545  and  _547
REMARK  224  A    between atoms: _547  and  _548
REMARK  225  A    between atoms: _550  and  _552
REMARK  226  A    between atoms: _552  and  _553
REMARK  227  A    between atoms: _552  and  _555
REMARK  228  A    between atoms: _555  and  _556
REMARK  229  A    between atoms: _556  and  _557
REMARK  230  A    between atoms: _557  and  _558
REMARK  231  A    between atoms: _567  and  _569
REMARK  232  A    between atoms: _569  and  _570
REMARK  233  A    between atoms: _569  and  _572
REMARK  234  A    between atoms: _572  and  _573
REMARK                            x       y       z     vdW  Elec       q    Type
REMARK                         _______ _______ _______ _____ _____    ______ ____
ROOT
ATOM      1  CA  LEU A   1     -10.423  12.202 -29.285  0.00  0.00    +0.133 C 
ENDROOT
BRANCH   1   2
ATOM      2  N   LEU A   1     -10.884  11.237 -28.281  0.00  0.00    -0.239 NA
ATOM      3  H   LEU A   1     -10.269  10.432 -28.043  0.00  0.00    +0.142 HD
ENDBRANCH   1   2
BRANCH   1   4
ATOM      4  C   LEU A   1     -10.999  11.848 -30.646  0.00  0.00    +0.224 C 
ATOM      5  O   LEU A   1     -10.960  10.696 -31.082  0.00  0.00    -0.287 OA
ENDBRANCH   1   4
BRANCH   1   6
ATOM      6  CB  LEU A   1      -8.895  12.255 -29.340  0.00  0.00    +0.025 C 
BRANCH   6   7
ATOM      7  CG  LEU A   1      -8.202  12.832 -28.108  0.00  0.00    +0.002 C 
ATOM      8  CD2 LEU A   1      -8.406  14.340 -28.061  0.00  0.00    +0.000 C 
ATOM      9  CD1 LEU A   1      -6.720  12.484 -28.105  0.00  0.00    +0.000 C 
ENDBRANCH   6   7
ENDBRANCH   1   6
TORSDOF 4
REMARK  Name = ../refined-set-2016/3bgc/3bgc_pocket.pdb
REMARK  234 active torsions:
REMARK  status: ('A' for Active; 'I' for Inactive)
REMARK    1  A    between atoms: _1  and  _3
REMARK    2  A    between atoms: _3  and  _4
REMARK    3  A    between atoms: _3  and  _6
REMARK    4  A    between atoms: _6  and  _7
REMARK    5  A    between atoms: _7  and  _8
REMARK    6  A    between atoms: _8  and  _9
REMARK    7  A    between atoms: _18  and  _20
REMARK    8  A    between atoms: _20  and  _21
REMARK    9  A    between atoms: _20  and  _23
REMARK   10  A    between atoms: _23  and  _24
REMARK   11  A    between atoms: _27  and  _29
REMARK   12  A    between atoms: _29  and  _30
REMARK   13  A    between atoms: _29  and  _32
REMARK   14  A    between atoms: _32  and  _33
REMARK   15  A    between atoms: _36  and  _38
REMARK   16  A    between atoms: _38  and  _39
REMARK   17  A    between atoms: _38  and  _41
REMARK   18  A    between atoms: _41  and  _42
REMARK   19  A    between atoms: _45  and  _47
REMARK   20  A    between atoms: _47  and  _48
REMARK   21  A    between atoms: _50  and  _52
REMARK   22  A    between atoms: _52  and  _53
REMARK   23  A    between atoms: _56  and  _58
REMARK   24  A    between atoms: _58  and  _59
REMARK   25  A    between atoms: _58  and  _61
REMARK   26  A    between atoms: _61  and  _62
REMARK   27  A    between atoms: _65  and  _67
REMARK   28  A    between atoms: _67  and  _68
REMARK   29  A    between atoms: _67  and  _70
REMARK   30  A    between atoms: _70  and  _71
REMARK   31  A    between atoms: _74  and  _76
REMARK   32  A    between atoms: _76  and  _77
REMARK   33  A    between atoms: _76  and  _79
REMARK   34  A    between atoms: _79  and  _80
REMARK   35  A    between atoms: _83  and  _85
REMARK   36  A    between atoms: _85  and  _86
REMARK   37  A    between atoms: _85  and  _88
REMARK   38  A    between atoms: _91  and  _93
REMARK   39  A    between atoms: _93  and  _94
REMARK   40  A    between atoms: _93  and  _96
REMARK   41  A    between atoms: _96  and  _97
REMARK   42  A    between atoms: _100  and  _102
REMARK   43  A    between atoms: _102  and  _103
REMARK   44  A    between atoms: _102  and  _105
REMARK   45  A    between atoms: _105  and  _106
REMARK   46  A    between atoms: _106  and  _107
REMARK   47  A    between atoms: _107  and  _108
REMARK   48  A    between atoms: _108  and  _109
REMARK   49  A    between atoms: _113  and  _115
REMARK   50  A    between atoms: _115  and  _116
REMARK   51  A    between atoms: _115  and  _118
REMARK   52  A    between atoms: _118  and  _119
REMARK   53  A    between atoms: _119  and  _120
REMARK   54  A    between atoms: _122  and  _124
REMARK   55  A    between atoms: _124  and  _125
REMARK   56  A    between atoms: _124  and  _127
REMARK   57  A    between atoms: _127  and  _128
REMARK   58  A    between atoms: _131  and  _133
REMARK   59  A    between atoms: _133  and  _134
REMARK   60  A    between atoms: _136  and  _138
REMARK   61  A    between atoms: _138  and  _139
REMARK   62  A    between atoms: _141  and  _143
REMARK   63  A    between atoms: _143  and  _144
REMARK   64  A    between atoms: _143  and  _146
REMARK   65  A    between atoms: _146  and  _147
REMARK   66  A    between atoms: _150  and  _152
REMARK   67  A    between atoms: _152  and  _153
REMARK   68  A    between atoms: _155  and  _157
REMARK   69  A    between atoms: _157  and  _158
REMARK   70  A    between atoms: _160  and  _162
REMARK   71  A    between atoms: _162  and  _163
REMARK   72  A    between atoms: _162  and  _165
REMARK   73  A    between atoms: _165  and  _166
REMARK   74  A    between atoms: _172  and  _174
REMARK   75  A    between atoms: _174  and  _175
REMARK   76  A    between atoms: _174  and  _177
REMARK   77  A    between atoms: _177  and  _178
REMARK   78  A    between atoms: _181  and  _183
REMARK   79  A    between atoms: _183  and  _184
REMARK   80  A    between atoms: _183  and  _186
REMARK   81  A    between atoms: _189  and  _191
REMARK   82  A    between atoms: _191  and  _192
REMARK   83  A    between atoms: _191  and  _194
REMARK   84  A    between atoms: _194  and  _195
REMARK   85  A    between atoms: _199  and  _200
REMARK   86  A    between atoms: _205  and  _207
REMARK   87  A    between atoms: _207  and  _208
REMARK   88  A    between atoms: _207  and  _210
REMARK   89  A    between atoms: _210  and  _211
REMARK   90  A    between atoms: _215  and  _216
REMARK   91  A    between atoms: _221  and  _223
REMARK   92  A    between atoms: _223  and  _224
REMARK   93  A    between atoms: _223  and  _226
REMARK   94  A    between atoms: _229  and  _231
REMARK   95  A    between atoms: _231  and  _232
REMARK   96  A    between atoms: _231  and  _234
REMARK   97  A    between atoms: _234  and  _235
REMARK   98  A    between atoms: _240  and  _242
REMARK   99  A    between atoms: _242  and  _243
REMARK  100  A    between atoms: _242  and  _245
REMARK  101  A    between atoms: _245  and  _246
REMARK  102  A    between atoms: _249  and  _251
REMARK  103  A    between atoms: _251  and  _252
REMARK  104  A    between atoms: _251  and  _254
REMARK  105  A    between atoms: _254  and  _255
REMARK  106  A    between atoms: _258  and  _260
REMARK  107  A    between atoms: _260  and  _261
REMARK  108  A    between atoms: _263  and  _265
REMARK  109  A    between atoms: _265  and  _266
REMARK  110  A    between atoms: _265  and  _268
REMARK  111  A    between atoms: _268  and  _269
REMARK  112  A    between atoms: _269  and  _270
REMARK  113  A    between atoms: _270  and  _271
REMARK  114  A    between atoms: _280  and  _282
REMARK  115  A    between atoms: _282  and  _283
REMARK  116  A    between atoms: _282  and  _285
REMARK  117  A    between atoms: _285  and  _286
REMARK  118  A    between atoms: _291  and  _293
REMARK  119  A    between atoms: _293  and  _294
REMARK  120  A    between atoms: _293  and  _296
REMARK  121  A    between atoms: _296  and  _297
REMARK  122  A    between atoms: _297  and  _298
REMARK  123  A    between atoms: _298  and  _299
REMARK  124  A    between atoms: _308  and  _310
REMARK  125  A    between atoms: _310  and  _311
REMARK  126  A    between atoms: _310  and  _313
REMARK  127  A    between atoms: _313  and  _314
REMARK  128  A    between atoms: _317  and  _319
REMARK  129  A    between atoms: _319  and  _320
REMARK  130  A    between atoms: _319  and  _322
REMARK  131  A    between atoms: _322  and  _323
REMARK  132  A    between atoms: _326  and  _328
REMARK  133  A    between atoms: _328  and  _329
REMARK  134  A    between atoms: _328  and  _331
REMARK  135  A    between atoms: _331  and  _332
REMARK  136  A    between atoms: _335  and  _337
REMARK  137  A    between atoms: _337  and  _338
REMARK  138  A    between atoms: _337  and  _340
REMARK  139  A    between atoms: _340  and  _341
REMARK  140  A    between atoms: _344  and  _346
REMARK  141  A    between atoms: _346  and  _347
REMARK  142  A    between atoms: _349  and  _351
REMARK  143  A    between atoms: _351  and  _352
REMARK  144  A    between atoms: _355  and  _357
REMARK  145  A    between atoms: _357  and  _358
REMARK  146  A    between atoms: _357  and  _360
REMARK  147  A    between atoms: _360  and  _361
REMARK  148  A    between atoms: _364  and  _366
REMARK  149  A    between atoms: _366  and  _367
REMARK  150  A    between atoms: _366  and  _369
REMARK  151  A    between atoms: _369  and  _370
REMARK  152  A    between atoms: _373  and  _375
REMARK  153  A    between atoms: _375  and  _376
REMARK  154  A    between atoms: _375  and  _378
REMARK  155  A    between atoms: _378  and  _379
REMARK  156  A    between atoms: _382  and  _384
REMARK  157  A    between atoms: _384  and  _385
REMARK  158  A    between atoms: _384  and  _387
REMARK  159  A    between atoms: _390  and  _392
REMARK  160  A    between atoms: _392  and  _393
REMARK  161  A    between atoms: _392  and  _395
REMARK  162  A    between atoms: _395  and  _396
REMARK  163  A    between atoms: _399  and  _401
REMARK  164  A    between atoms: _401  and  _402
REMARK  165  A    between atoms: _401  and  _404
REMARK  166  A    between atoms: _404  and  _405
REMARK  167  A    between atoms: _405  and  _406
REMARK  168  A    between atoms: _406  and  _407
REMARK  169  A    between atoms: _407  and  _408
REMARK  170  A    between atoms: _412  and  _414
REMARK  171  A    between atoms: _414  and  _415
REMARK  172  A    between atoms: _414  and  _417
REMARK  173  A    between atoms: _417  and  _418
REMARK  174  A    between atoms: _418  and  _419
REMARK  175  A    between atoms: _421  and  _423
REMARK  176  A    between atoms: _423  and  _424
REMARK  177  A    between atoms: _423  and  _426
REMARK  178  A    between atoms: _426  and  _427
REMARK  179  A    between atoms: _430  and  _432
REMARK  180  A    between atoms: _432  and  _433
REMARK  181  A    between atoms: _435  and  _437
REMARK  182  A    between atoms: _437  and  _438
REMARK  183  A    between atoms: _440  and  _442
REMARK  184  A    between atoms: _442  and  _443
REMARK  185  A    between atoms: _442  and  _445
REMARK  186  A    between atoms: _445  and  _446
REMARK  187  A    between atoms: _449  and  _451
REMARK  188  A    between atoms: _451  and  _452
REMARK  189  A    between atoms: _454  and  _456
REMARK  190  A    between atoms: _456  and  _457
REMARK  191  A    between atoms: _459  and  _461
REMARK  192  A    between atoms: _461  and  _462
REMARK  193  A    between atoms: _461  and  _464
REMARK  194  A    between atoms: _464  and  _465
REMARK  195  A    between atoms: _468  and  _470
REMARK  196  A    between atoms: _470  and  _471
REMARK  197  A    between atoms: _470  and  _473
REMARK  198  A    between atoms: _476  and  _478
REMARK  199  A    between atoms: _478  and  _479
REMARK  200  A    between atoms: _478  and  _481
REMARK  201  A    between atoms: _481  and  _482
REMARK  202  A    between atoms: _486  and  _487
REMARK  203  A    between atoms: _492  and  _494
REMARK  204  A    between atoms: _494  and  _495
REMARK  205  A    between atoms: _494  and  _497
REMARK  206  A    between atoms: _497  and  _498
REMARK  207  A    between atoms: _502  and  _503
REMARK  208  A    between atoms: _508  and  _510
REMARK  209  A    between atoms: _510  and  _511
REMARK  210  A    between atoms: _510  and  _513
REMARK  211  A    between atoms: _516  and  _518
REMARK  212  A    between atoms: _518  and  _519
REMARK  213  A    between atoms: _518  and  _521
REMARK  214  A    between atoms: _521  and  _522
REMARK  215  A    between atoms: _527  and  _529
REMARK  216  A    between atoms: _529  and  _530
REMARK  217  A    between atoms: _529  and  _532
REMARK  218  A    between atoms: _532  and  _533
REMARK  219  A    between atoms: _536  and  _538
REMARK  220  A    between atoms: _538  and  _539
REMARK  221  A    between atoms: _538  and  _541
REMARK  222  A    between atoms: _541  and  _542
REMARK  223  A    between atoms: _545  and  _547
REMARK  224  A    between atoms: _547  and  _548
REMARK  225  A    between atoms: _550  and  _552
REMARK  226  A    between atoms: _552  and  _553
REMARK  227  A    between atoms: _552  and  _555
REMARK  228  A    between atoms: _555  and  _556
REMARK  229  A    between atoms: _556  and  _557
REMARK  230  A    between atoms: _557  and  _558
REMARK  231  A    between atoms: _567  and  _569
REMARK  232  A    between atoms: _569  and  _570
REMARK  233  A    between atoms: _569  and  _572
REMARK  234  A    between atoms: _572  and  _573
REMARK                            x       y       z     vdW  Elec       q    Type
REMARK                         _______ _______ _______ _____ _____    ______ ____
ROOT
ATOM      1  CA  LEU A   1     -11.980  15.779 -27.102  0.00  0.00    +0.133 C 
ENDROOT
BRANCH   1   2
ATOM      2  N   LEU A   1     -11.551  16.646 -28.180  0.00  0.00    -0.239 NA
ATOM      3  H   LEU A   1     -11.314  17.627 -27.929  0.00  0.00    +0.142 HD
ENDBRANCH   1   2
BRANCH   1   4
ATOM      4  C   LEU A   1     -13.472  15.912 -26.828  0.00  0.00    +0.224 C 
ATOM      5  O   LEU A   1     -13.908  17.039 -26.567  0.00  0.00    -0.287 OA
ENDBRANCH   1   4
BRANCH   1   6
ATOM      6  CB  LEU A   1     -11.203  16.194 -25.858  0.00  0.00    +0.025 C 
BRANCH   6   7
ATOM      7  CG  LEU A   1     -11.336  15.344 -24.600  0.00  0.00    +0.002 C 
ATOM      8  CD2 LEU A   1     -10.708  16.090 -23.430  0.00  0.00    +0.000 C 
ATOM      9  CD1 LEU A   1     -10.701  13.976 -24.807  0.00  0.00    +0.000 C 
ENDBRANCH   6   7
ENDBRANCH   1   6
TORSDOF 4
REMARK  Name = ../refined-set-2016/3bgc/3bgc_pocket.pdb
REMARK  234 active torsions:
REMARK  status: ('A' for Active; 'I' for Inactive)
REMARK    1  A    between atoms: _1  and  _3
REMARK    2  A    between atoms: _3  and  _4
REMARK    3  A    between atoms: _3  and  _6
REMARK    4  A    between atoms: _6  and  _7
REMARK    5  A    between atoms: _7  and  _8
REMARK    6  A    between atoms: _8  and  _9
REMARK    7  A    between atoms: _18  and  _20
REMARK    8  A    between atoms: _20  and  _21
REMARK    9  A    between atoms: _20  and  _23
REMARK   10  A    between atoms: _23  and  _24
REMARK   11  A    between atoms: _27  and  _29
REMARK   12  A    between atoms: _29  and  _30
REMARK   13  A    between atoms: _29  and  _32
REMARK   14  A    between atoms: _32  and  _33
REMARK   15  A    between atoms: _36  and  _38
REMARK   16  A    between atoms: _38  and  _39
REMARK   17  A    between atoms: _38  and  _41
REMARK   18  A    between atoms: _41  and  _42
REMARK   19  A    between atoms: _45  and  _47
REMARK   20  A    between atoms: _47  and  _48
REMARK   21  A    between atoms: _50  and  _52
REMARK   22  A    between atoms: _52  and  _53
REMARK   23  A    between atoms: _56  and  _58
REMARK   24  A    between atoms: _58  and  _59
REMARK   25  A    between atoms: _58  and  _61
REMARK   26  A    between atoms: _61  and  _62
REMARK   27  A    between atoms: _65  and  _67
REMARK   28  A    between atoms: _67  and  _68
REMARK   29  A    between atoms: _67  and  _70
REMARK   30  A    between atoms: _70  and  _71
REMARK   31  A    between atoms: _74  and  _76
REMARK   32  A    between atoms: _76  and  _77
REMARK   33  A    between atoms: _76  and  _79
REMARK   34  A    between atoms: _79  and  _80
REMARK   35  A    between atoms: _83  and  _85
REMARK   36  A    between atoms: _85  and  _86
REMARK   37  A    between atoms: _85  and  _88
REMARK   38  A    between atoms: _91  and  _93
REMARK   39  A    between atoms: _93  and  _94
REMARK   40  A    between atoms: _93  and  _96
REMARK   41  A    between atoms: _96  and  _97
REMARK   42  A    between atoms: _100  and  _102
REMARK   43  A    between atoms: _102  and  _103
REMARK   44  A    between atoms: _102  and  _105
REMARK   45  A    between atoms: _105  and  _106
REMARK   46  A    between atoms: _106  and  _107
REMARK   47  A    between atoms: _107  and  _108
REMARK   48  A    between atoms: _108  and  _109
REMARK   49  A    between atoms: _113  and  _115
REMARK   50  A    between atoms: _115  and  _116
REMARK   51  A    between atoms: _115  and  _118
REMARK   52  A    between atoms: _118  and  _119
REMARK   53  A    between atoms: _119  and  _120
REMARK   54  A    between atoms: _122  and  _124
REMARK   55  A    between atoms: _124  and  _125
REMARK   56  A    between atoms: _124  and  _127
REMARK   57  A    between atoms: _127  and  _128
REMARK   58  A    between atoms: _131  and  _133
REMARK   59  A    between atoms: _133  and  _134
REMARK   60  A    between atoms: _136  and  _138
REMARK   61  A    between atoms: _138  and  _139
REMARK   62  A    between atoms: _141  and  _143
REMARK   63  A    between atoms: _143  and  _144
REMARK   64  A    between atoms: _143  and  _146
REMARK   65  A    between atoms: _146  and  _147
REMARK   66  A    between atoms: _150  and  _152
REMARK   67  A    between atoms: _152  and  _153
REMARK   68  A    between atoms: _155  and  _157
REMARK   69  A    between atoms: _157  and  _158
REMARK   70  A    between atoms: _160  and  _162
REMARK   71  A    between atoms: _162  and  _163
REMARK   72  A    between atoms: _162  and  _165
REMARK   73  A    between atoms: _165  and  _166
REMARK   74  A    between atoms: _172  and  _174
REMARK   75  A    between atoms: _174  and  _175
REMARK   76  A    between atoms: _174  and  _177
REMARK   77  A    between atoms: _177  and  _178
REMARK   78  A    between atoms: _181  and  _183
REMARK   79  A    between atoms: _183  and  _184
REMARK   80  A    between atoms: _183  and  _186
REMARK   81  A    between atoms: _189  and  _191
REMARK   82  A    between atoms: _191  and  _192
REMARK   83  A    between atoms: _191  and  _194
REMARK   84  A    between atoms: _194  and  _195
REMARK   85  A    between atoms: _199  and  _200
REMARK   86  A    between atoms: _205  and  _207
REMARK   87  A    between atoms: _207  and  _208
REMARK   88  A    between atoms: _207  and  _210
REMARK   89  A    between atoms: _210  and  _211
REMARK   90  A    between atoms: _215  and  _216
REMARK   91  A    between atoms: _221  and  _223
REMARK   92  A    between atoms: _223  and  _224
REMARK   93  A    between atoms: _223  and  _226
REMARK   94  A    between atoms: _229  and  _231
REMARK   95  A    between atoms: _231  and  _232
REMARK   96  A    between atoms: _231  and  _234
REMARK   97  A    between atoms: _234  and  _235
REMARK   98  A    between atoms: _240  and  _242
REMARK   99  A    between atoms: _242  and  _243
REMARK  100  A    between atoms: _242  and  _245
REMARK  101  A    between atoms: _245  and  _246
REMARK  102  A    between atoms: _249  and  _251
REMARK  103  A    between atoms: _251  and  _252
REMARK  104  A    between atoms: _251  and  _254
REMARK  105  A    between atoms: _254  and  _255
REMARK  106  A    between atoms: _258  and  _260
REMARK  107  A    between atoms: _260  and  _261
REMARK  108  A    between atoms: _263  and  _265
REMARK  109  A    between atoms: _265  and  _266
REMARK  110  A    between atoms: _265  and  _268
REMARK  111  A    between atoms: _268  and  _269
REMARK  112  A    between atoms: _269  and  _270
REMARK  113  A    between atoms: _270  and  _271
REMARK  114  A    between atoms: _280  and  _282
REMARK  115  A    between atoms: _282  and  _283
REMARK  116  A    between atoms: _282  and  _285
REMARK  117  A    between atoms: _285  and  _286
REMARK  118  A    between atoms: _291  and  _293
REMARK  119  A    between atoms: _293  and  _294
REMARK  120  A    between atoms: _293  and  _296
REMARK  121  A    between atoms: _296  and  _297
REMARK  122  A    between atoms: _297  and  _298
REMARK  123  A    between atoms: _298  and  _299
REMARK  124  A    between atoms: _308  and  _310
REMARK  125  A    between atoms: _310  and  _311
REMARK  126  A    between atoms: _310  and  _313
REMARK  127  A    between atoms: _313  and  _314
REMARK  128  A    between atoms: _317  and  _319
REMARK  129  A    between atoms: _319  and  _320
REMARK  130  A    between atoms: _319  and  _322
REMARK  131  A    between atoms: _322  and  _323
REMARK  132  A    between atoms: _326  and  _328
REMARK  133  A    between atoms: _328  and  _329
REMARK  134  A    between atoms: _328  and  _331
REMARK  135  A    between atoms: _331  and  _332
REMARK  136  A    between atoms: _335  and  _337
REMARK  137  A    between atoms: _337  and  _338
REMARK  138  A    between atoms: _337  and  _340
REMARK  139  A    between atoms: _340  and  _341
REMARK  140  A    between atoms: _344  and  _346
REMARK  141  A    between atoms: _346  and  _347
REMARK  142  A    between atoms: _349  and  _351
REMARK  143  A    between atoms: _351  and  _352
REMARK  144  A    between atoms: _355  and  _357
REMARK  145  A    between atoms: _357  and  _358
REMARK  146  A    between atoms: _357  and  _360
REMARK  147  A    between atoms: _360  and  _361
REMARK  148  A    between atoms: _364  and  _366
REMARK  149  A    between atoms: _366  and  _367
REMARK  150  A    between atoms: _366  and  _369
REMARK  151  A    between atoms: _369  and  _370
REMARK  152  A    between atoms: _373  and  _375
REMARK  153  A    between atoms: _375  and  _376
REMARK  154  A    between atoms: _375  and  _378
REMARK  155  A    between atoms: _378  and  _379
REMARK  156  A    between atoms: _382  and  _384
REMARK  157  A    between atoms: _384  and  _385
REMARK  158  A    between atoms: _384  and  _387
REMARK  159  A    between atoms: _390  and  _392
REMARK  160  A    between atoms: _392  and  _393
REMARK  161  A    between atoms: _392  and  _395
REMARK  162  A    between atoms: _395  and  _396
REMARK  163  A    between atoms: _399  and  _401
REMARK  164  A    between atoms: _401  and  _402
REMARK  165  A    between atoms: _401  and  _404
REMARK  166  A    between atoms: _404  and  _405
REMARK  167  A    between atoms: _405  and  _406
REMARK  168  A    between atoms: _406  and  _407
REMARK  169  A    between atoms: _407  and  _408
REMARK  170  A    between atoms: _412  and  _414
REMARK  171  A    between atoms: _414  and  _415
REMARK  172  A    between atoms: _414  and  _417
REMARK  173  A    between atoms: _417  and  _418
REMARK  174  A    between atoms: _418  and  _419
REMARK  175  A    between atoms: _421  and  _423
REMARK  176  A    between atoms: _423  and  _424
REMARK  177  A    between atoms: _423  and  _426
REMARK  178  A    between atoms: _426  and  _427
REMARK  179  A    between atoms: _430  and  _432
REMARK  180  A    between atoms: _432  and  _433
REMARK  181  A    between atoms: _435  and  _437
REMARK  182  A    between atoms: _437  and  _438
REMARK  183  A    between atoms: _440  and  _442
REMARK  184  A    between atoms: _442  and  _443
REMARK  185  A    between atoms: _442  and  _445
REMARK  186  A    between atoms: _445  and  _446
REMARK  187  A    between atoms: _449  and  _451
REMARK  188  A    between atoms: _451  and  _452
REMARK  189  A    between atoms: _454  and  _456
REMARK  190  A    between atoms: _456  and  _457
REMARK  191  A    between atoms: _459  and  _461
REMARK  192  A    between atoms: _461  and  _462
REMARK  193  A    between atoms: _461  and  _464
REMARK  194  A    between atoms: _464  and  _465
REMARK  195  A    between atoms: _468  and  _470
REMARK  196  A    between atoms: _470  and  _471
REMARK  197  A    between atoms: _470  and  _473
REMARK  198  A    between atoms: _476  and  _478
REMARK  199  A    between atoms: _478  and  _479
REMARK  200  A    between atoms: _478  and  _481
REMARK  201  A    between atoms: _481  and  _482
REMARK  202  A    between atoms: _486  and  _487
REMARK  203  A    between atoms: _492  and  _494
REMARK  204  A    between atoms: _494  and  _495
REMARK  205  A    between atoms: _494  and  _497
REMARK  206  A    between atoms: _497  and  _498
REMARK  207  A    between atoms: _502  and  _503
REMARK  208  A    between atoms: _508  and  _510
REMARK  209  A    between atoms: _510  and  _511
REMARK  210  A    between atoms: _510  and  _513
REMARK  211  A    between atoms: _516  and  _518
REMARK  212  A    between atoms: _518  and  _519
REMARK  213  A    between atoms: _518  and  _521
REMARK  214  A    between atoms: _521  and  _522
REMARK  215  A    between atoms: _527  and  _529
REMARK  216  A    between atoms: _529  and  _530
REMARK  217  A    between atoms: _529  and  _532
REMARK  218  A    between atoms: _532  and  _533
REMARK  219  A    between atoms: _536  and  _538
REMARK  220  A    between atoms: _538  and  _539
REMARK  221  A    between atoms: _538  and  _541
REMARK  222  A    between atoms: _541  and  _542
REMARK  223  A    between atoms: _545  and  _547
REMARK  224  A    between atoms: _547  and  _548
REMARK  225  A    between atoms: _550  and  _552
REMARK  226  A    between atoms: _552  and  _553
REMARK  227  A    between atoms: _552  and  _555
REMARK  228  A    between atoms: _555  and  _556
REMARK  229  A    between atoms: _556  and  _557
REMARK  230  A    between atoms: _557  and  _558
REMARK  231  A    between atoms: _567  and  _569
REMARK  232  A    between atoms: _569  and  _570
REMARK  233  A    between atoms: _569  and  _572
REMARK  234  A    between atoms: _572  and  _573
REMARK                            x       y       z     vdW  Elec       q    Type
REMARK                         _______ _______ _______ _____ _____    ______ ____
ROOT
ATOM      1  C   ASP A   5     -21.025  23.405 -22.406  0.00  0.00    +0.241 C 
ATOM      2  N   ASP A   6     -19.868  23.967 -22.742  0.00  0.00    -0.297 N 
ATOM      3  H   ASP A   6     -19.076  23.937 -22.069  0.00  0.00    +0.150 HD
ATOM      4  O   ASP A   5     -21.974  23.302 -23.165  0.00  0.00    -0.273 OA
ENDROOT
BRANCH   1   5
ATOM      5  CA  ASP A   5     -21.076  22.930 -20.957  0.00  0.00    +0.160 C 
BRANCH   5   7
ATOM      6  C   ALA A   4     -19.345  21.249 -21.090  0.00  0.00    +0.241 C 
ATOM      7  N   ASP A   5     -19.783  22.383 -20.551  0.00  0.00    -0.297 N 
ATOM      8  H   ASP A   5     -19.207  22.880 -19.842  0.00  0.00    +0.150 HD
ATOM      9  O   ALA A   4     -19.991  20.608 -21.914  0.00  0.00    -0.273 OA
BRANCH   6  10
ATOM     10  CA  ALA A   4     -17.971  20.799 -20.603  0.00  0.00    +0.149 C 
ATOM     11  CB  ALA A   4     -16.980  20.910 -21.756  0.00  0.00    +0.031 C 
BRANCH  10  14
ATOM     12  C   GLY A   3     -18.067  19.159 -18.774  0.00  0.00    +0.243 C 
ATOM     13  O   GLY A   3     -18.184  20.019 -17.902  0.00  0.00    -0.273 OA
ATOM     14  N   ALA A   4     -17.989  19.458 -20.058  0.00  0.00    -0.297 N 
ATOM     15  H   ALA A   4     -17.936  18.667 -20.731  0.00  0.00    +0.150 HD
BRANCH  12  16
ATOM     16  CA  GLY A   3     -17.991  17.687 -18.385  0.00  0.00    +0.176 C 
BRANCH  16  18
ATOM     17  C   THR A   2     -19.416  16.545 -20.007  0.00  0.00    +0.243 C 
ATOM     18  N   GLY A   3     -18.223  16.791 -19.500  0.00  0.00    -0.295 N 
ATOM     19  H   GLY A   3     -17.402  16.315 -19.925  0.00  0.00    +0.150 HD
ATOM     20  O   THR A   2     -20.465  16.991 -19.527  0.00  0.00    -0.273 OA
BRANCH  17  21
ATOM     21  CA  THR A   2     -19.448  15.666 -21.248  0.00  0.00    +0.176 C 
BRANCH  21  23
ATOM     22  C   ASP A   1     -17.548  16.522 -22.479  0.00  0.00    +0.239 C 
ATOM     23  N   THR A   2     -18.136  15.501 -21.865  0.00  0.00    -0.295 N 
ATOM     24  H   THR A   2     -17.658  14.578 -21.824  0.00  0.00    +0.150 HD
ATOM     25  O   ASP A   1     -18.099  17.616 -22.568  0.00  0.00    -0.274 OA
BRANCH  22  26
ATOM     26  CA  ASP A   1     -16.168  16.281 -23.073  0.00  0.00    +0.156 C 
BRANCH  26  27
ATOM     27  N   ASP A   1     -16.238  16.017 -24.501  0.00  0.00    -0.238 NA
ATOM     28  H   ASP A   1     -16.684  16.717 -25.128  0.00  0.00    +0.142 HD
ENDBRANCH  26  27
BRANCH  26  29
ATOM     29  CB  ASP A   1     -15.245  17.481 -22.829  0.00  0.00    +0.140 C 
BRANCH  29  30
ATOM     30  CG  ASP A   1     -14.811  17.585 -21.383  0.00  0.00    +0.367 C 
ATOM     31  OD2 ASP A   1     -15.480  16.976 -20.521  0.00  0.00    -0.246 OA
ATOM     32  OD1 ASP A   1     -13.813  18.275 -21.097  0.00  0.00    -0.246 OA
ENDBRANCH  29  30
ENDBRANCH  26  29
ENDBRANCH  22  26
ENDBRANCH  21  23
BRANCH  21  33
ATOM     33  CB  THR A   2     -20.033  14.298 -20.856  0.00  0.00    +0.137 C 
ATOM     34  CG2 THR A   2     -20.198  13.443 -22.105  0.00  0.00    +0.034 C 
BRANCH  33  35
ATOM     35  OG1 THR A   2     -19.124  13.616 -19.989  0.00  0.00    -0.382 OA
ATOM     36  HG1 THR A   2     -18.979  14.158 -19.173  0.00  0.00    +0.210 HD
ENDBRANCH  33  35
ENDBRANCH  21  33
ENDBRANCH  17  21
ENDBRANCH  16  18
ENDBRANCH  12  16
ENDBRANCH  10  14
ENDBRANCH   6  10
ENDBRANCH   5   7
BRANCH   5  37
ATOM     37  CB  ASP A   5     -21.507  24.126 -20.121  0.00  0.00    +0.143 C 
BRANCH  37  38
ATOM     38  CG  ASP A   5     -21.886  23.834 -18.688  0.00  0.00    +0.367 C 
ATOM     39  OD2 ASP A   5     -22.051  24.833 -17.950  0.00  0.00    -0.246 OA
ATOM     40  OD1 ASP A   5     -22.017  22.667 -18.267  0.00  0.00    -0.246 OA
ENDBRANCH  37  38
ENDBRANCH   5  37
ENDBRANCH   1   5
BRANCH   2  41
ATOM     41  CA  ASP A   6     -19.683  24.620 -24.020  0.00  0.00    +0.160 C 
BRANCH  41  42
ATOM     42  C   ASP A   6     -18.433  24.107 -24.730  0.00  0.00    +0.241 C 
ATOM     43  O   ASP A   6     -17.538  23.544 -24.115  0.00  0.00    -0.273 OA
ATOM     44  N   THR A   7     -18.416  24.349 -26.028  0.00  0.00    -0.295 N 
ATOM     45  H   THR A   7     -19.232  24.826 -26.462  0.00  0.00    +0.150 HD
BRANCH  44  46
ATOM     46  CA  THR A   7     -17.294  23.971 -26.870  0.00  0.00    +0.176 C 
BRANCH  46  47
ATOM     47  C   THR A   7     -16.226  25.057 -26.841  0.00  0.00    +0.243 C 
ATOM     48  N   VAL A   8     -14.991  24.650 -26.575  0.00  0.00    -0.297 N 
ATOM     49  H   VAL A   8     -14.838  23.635 -26.411  0.00  0.00    +0.150 HD
ATOM     50  O   THR A   7     -16.528  26.232 -27.052  0.00  0.00    -0.273 OA
BRANCH  48  51
ATOM     51  CA  VAL A   8     -13.843  25.529 -26.499  0.00  0.00    +0.149 C 
BRANCH  51  52
ATOM     52  C   VAL A   8     -12.703  25.047 -27.403  0.00  0.00    +0.241 C 
ATOM     53  O   VAL A   8     -12.201  23.933 -27.237  0.00  0.00    -0.273 OA
ATOM     54  N   LEU A   9     -12.309  25.864 -28.362  0.00  0.00    -0.298 N 
ATOM     55  H   LEU A   9     -12.751  26.803 -28.426  0.00  0.00    +0.150 HD
BRANCH  54  56
ATOM     56  CA  LEU A   9     -11.289  25.512 -29.329  0.00  0.00    +0.137 C 
BRANCH  56  57
ATOM     57  C   LEU A   9     -10.034  26.369 -29.178  0.00  0.00    +0.227 C 
ATOM     58  O   LEU A   9     -10.123  27.532 -28.780  0.00  0.00    -0.286 OA
ENDBRANCH  56  57
BRANCH  56  59
ATOM     59  CB  LEU A   9     -11.783  25.706 -30.765  0.00  0.00    +0.028 C 
BRANCH  59  60
ATOM     60  CG  LEU A   9     -13.039  24.942 -31.187  0.00  0.00    +0.002 C 
ATOM     61  CD2 LEU A   9     -12.977  23.489 -30.764  0.00  0.00    +0.000 C 
ATOM     62  CD1 LEU A   9     -13.230  25.053 -32.696  0.00  0.00    +0.000 C 
ENDBRANCH  59  60
ENDBRANCH  56  59
ENDBRANCH  54  56
ENDBRANCH  51  52
BRANCH  51  63
ATOM     63  CB  VAL A   8     -13.273  25.632 -25.069  0.00  0.00    +0.027 C 
ATOM     64  CG2 VAL A   8     -14.337  25.804 -24.006  0.00  0.00    +0.002 C 
ATOM     65  CG1 VAL A   8     -12.297  26.805 -25.025  0.00  0.00    +0.002 C 
ENDBRANCH  51  63
ENDBRANCH  48  51
ENDBRANCH  46  47
BRANCH  46  66
ATOM     66  CB  THR A   7     -17.815  23.731 -28.290  0.00  0.00    +0.137 C 
ATOM     67  CG2 THR A   7     -16.699  23.440 -29.271  0.00  0.00    +0.034 C 
BRANCH  66  68
ATOM     68  OG1 THR A   7     -18.662  22.569 -28.253  0.00  0.00    -0.382 OA
ATOM     69  HG1 THR A   7     -19.415  22.731 -27.632  0.00  0.00    +0.210 HD
ENDBRANCH  66  68
ENDBRANCH  46  66
ENDBRANCH  44  46
ENDBRANCH  41  42
BRANCH  41  70
ATOM     70  CB  ASP A   6     -19.528  26.133 -23.835  0.00  0.00    +0.143 C 
BRANCH  70  71
ATOM     71  CG  ASP A   6     -20.619  26.740 -22.977  0.00  0.00    +0.367 C 
ATOM     72  OD2 ASP A   6     -20.311  27.243 -21.878  0.00  0.00    -0.246 OA
ATOM     73  OD1 ASP A   6     -21.776  26.705 -23.418  0.00  0.00    -0.246 OA
ENDBRANCH  70  71
ENDBRANCH  41  70
ENDBRANCH   2  41
TORSDOF 31
REMARK  Name = ../refined-set-2016/3bgc/3bgc_pocket.pdb
REMARK  234 active torsions:
REMARK  status: ('A' for Active; 'I' for Inactive)
REMARK    1  A    between atoms: _1  and  _3
REMARK    2  A    between atoms: _3  and  _4
REMARK    3  A    between atoms: _3  and  _6
REMARK    4  A    between atoms: _6  and  _7
REMARK    5  A    between atoms: _7  and  _8
REMARK    6  A    between atoms: _8  and  _9
REMARK    7  A    between atoms: _18  and  _20
REMARK    8  A    between atoms: _20  and  _21
REMARK    9  A    between atoms: _20  and  _23
REMARK   10  A    between atoms: _23  and  _24
REMARK   11  A    between atoms: _27  and  _29
REMARK   12  A    between atoms: _29  and  _30
REMARK   13  A    between atoms: _29  and  _32
REMARK   14  A    between atoms: _32  and  _33
REMARK   15  A    between atoms: _36  and  _38
REMARK   16  A    between atoms: _38  and  _39
REMARK   17  A    between atoms: _38  and  _41
REMARK   18  A    between atoms: _41  and  _42
REMARK   19  A    between atoms: _45  and  _47
REMARK   20  A    between atoms: _47  and  _48
REMARK   21  A    between atoms: _50  and  _52
REMARK   22  A    between atoms: _52  and  _53
REMARK   23  A    between atoms: _56  and  _58
REMARK   24  A    between atoms: _58  and  _59
REMARK   25  A    between atoms: _58  and  _61
REMARK   26  A    between atoms: _61  and  _62
REMARK   27  A    between atoms: _65  and  _67
REMARK   28  A    between atoms: _67  and  _68
REMARK   29  A    between atoms: _67  and  _70
REMARK   30  A    between atoms: _70  and  _71
REMARK   31  A    between atoms: _74  and  _76
REMARK   32  A    between atoms: _76  and  _77
REMARK   33  A    between atoms: _76  and  _79
REMARK   34  A    between atoms: _79  and  _80
REMARK   35  A    between atoms: _83  and  _85
REMARK   36  A    between atoms: _85  and  _86
REMARK   37  A    between atoms: _85  and  _88
REMARK   38  A    between atoms: _91  and  _93
REMARK   39  A    between atoms: _93  and  _94
REMARK   40  A    between atoms: _93  and  _96
REMARK   41  A    between atoms: _96  and  _97
REMARK   42  A    between atoms: _100  and  _102
REMARK   43  A    between atoms: _102  and  _103
REMARK   44  A    between atoms: _102  and  _105
REMARK   45  A    between atoms: _105  and  _106
REMARK   46  A    between atoms: _106  and  _107
REMARK   47  A    between atoms: _107  and  _108
REMARK   48  A    between atoms: _108  and  _109
REMARK   49  A    between atoms: _113  and  _115
REMARK   50  A    between atoms: _115  and  _116
REMARK   51  A    between atoms: _115  and  _118
REMARK   52  A    between atoms: _118  and  _119
REMARK   53  A    between atoms: _119  and  _120
REMARK   54  A    between atoms: _122  and  _124
REMARK   55  A    between atoms: _124  and  _125
REMARK   56  A    between atoms: _124  and  _127
REMARK   57  A    between atoms: _127  and  _128
REMARK   58  A    between atoms: _131  and  _133
REMARK   59  A    between atoms: _133  and  _134
REMARK   60  A    between atoms: _136  and  _138
REMARK   61  A    between atoms: _138  and  _139
REMARK   62  A    between atoms: _141  and  _143
REMARK   63  A    between atoms: _143  and  _144
REMARK   64  A    between atoms: _143  and  _146
REMARK   65  A    between atoms: _146  and  _147
REMARK   66  A    between atoms: _150  and  _152
REMARK   67  A    between atoms: _152  and  _153
REMARK   68  A    between atoms: _155  and  _157
REMARK   69  A    between atoms: _157  and  _158
REMARK   70  A    between atoms: _160  and  _162
REMARK   71  A    between atoms: _162  and  _163
REMARK   72  A    between atoms: _162  and  _165
REMARK   73  A    between atoms: _165  and  _166
REMARK   74  A    between atoms: _172  and  _174
REMARK   75  A    between atoms: _174  and  _175
REMARK   76  A    between atoms: _174  and  _177
REMARK   77  A    between atoms: _177  and  _178
REMARK   78  A    between atoms: _181  and  _183
REMARK   79  A    between atoms: _183  and  _184
REMARK   80  A    between atoms: _183  and  _186
REMARK   81  A    between atoms: _189  and  _191
REMARK   82  A    between atoms: _191  and  _192
REMARK   83  A    between atoms: _191  and  _194
REMARK   84  A    between atoms: _194  and  _195
REMARK   85  A    between atoms: _199  and  _200
REMARK   86  A    between atoms: _205  and  _207
REMARK   87  A    between atoms: _207  and  _208
REMARK   88  A    between atoms: _207  and  _210
REMARK   89  A    between atoms: _210  and  _211
REMARK   90  A    between atoms: _215  and  _216
REMARK   91  A    between atoms: _221  and  _223
REMARK   92  A    between atoms: _223  and  _224
REMARK   93  A    between atoms: _223  and  _226
REMARK   94  A    between atoms: _229  and  _231
REMARK   95  A    between atoms: _231  and  _232
REMARK   96  A    between atoms: _231  and  _234
REMARK   97  A    between atoms: _234  and  _235
REMARK   98  A    between atoms: _240  and  _242
REMARK   99  A    between atoms: _242  and  _243
REMARK  100  A    between atoms: _242  and  _245
REMARK  101  A    between atoms: _245  and  _246
REMARK  102  A    between atoms: _249  and  _251
REMARK  103  A    between atoms: _251  and  _252
REMARK  104  A    between atoms: _251  and  _254
REMARK  105  A    between atoms: _254  and  _255
REMARK  106  A    between atoms: _258  and  _260
REMARK  107  A    between atoms: _260  and  _261
REMARK  108  A    between atoms: _263  and  _265
REMARK  109  A    between atoms: _265  and  _266
REMARK  110  A    between atoms: _265  and  _268
REMARK  111  A    between atoms: _268  and  _269
REMARK  112  A    between atoms: _269  and  _270
REMARK  113  A    between atoms: _270  and  _271
REMARK  114  A    between atoms: _280  and  _282
REMARK  115  A    between atoms: _282  and  _283
REMARK  116  A    between atoms: _282  and  _285
REMARK  117  A    between atoms: _285  and  _286
REMARK  118  A    between atoms: _291  and  _293
REMARK  119  A    between atoms: _293  and  _294
REMARK  120  A    between atoms: _293  and  _296
REMARK  121  A    between atoms: _296  and  _297
REMARK  122  A    between atoms: _297  and  _298
REMARK  123  A    between atoms: _298  and  _299
REMARK  124  A    between atoms: _308  and  _310
REMARK  125  A    between atoms: _310  and  _311
REMARK  126  A    between atoms: _310  and  _313
REMARK  127  A    between atoms: _313  and  _314
REMARK  128  A    between atoms: _317  and  _319
REMARK  129  A    between atoms: _319  and  _320
REMARK  130  A    between atoms: _319  and  _322
REMARK  131  A    between atoms: _322  and  _323
REMARK  132  A    between atoms: _326  and  _328
REMARK  133  A    between atoms: _328  and  _329
REMARK  134  A    between atoms: _328  and  _331
REMARK  135  A    between atoms: _331  and  _332
REMARK  136  A    between atoms: _335  and  _337
REMARK  137  A    between atoms: _337  and  _338
REMARK  138  A    between atoms: _337  and  _340
REMARK  139  A    between atoms: _340  and  _341
REMARK  140  A    between atoms: _344  and  _346
REMARK  141  A    between atoms: _346  and  _347
REMARK  142  A    between atoms: _349  and  _351
REMARK  143  A    between atoms: _351  and  _352
REMARK  144  A    between atoms: _355  and  _357
REMARK  145  A    between atoms: _357  and  _358
REMARK  146  A    between atoms: _357  and  _360
REMARK  147  A    between atoms: _360  and  _361
REMARK  148  A    between atoms: _364  and  _366
REMARK  149  A    between atoms: _366  and  _367
REMARK  150  A    between atoms: _366  and  _369
REMARK  151  A    between atoms: _369  and  _370
REMARK  152  A    between atoms: _373  and  _375
REMARK  153  A    between atoms: _375  and  _376
REMARK  154  A    between atoms: _375  and  _378
REMARK  155  A    between atoms: _378  and  _379
REMARK  156  A    between atoms: _382  and  _384
REMARK  157  A    between atoms: _384  and  _385
REMARK  158  A    between atoms: _384  and  _387
REMARK  159  A    between atoms: _390  and  _392
REMARK  160  A    between atoms: _392  and  _393
REMARK  161  A    between atoms: _392  and  _395
REMARK  162  A    between atoms: _395  and  _396
REMARK  163  A    between atoms: _399  and  _401
REMARK  164  A    between atoms: _401  and  _402
REMARK  165  A    between atoms: _401  and  _404
REMARK  166  A    between atoms: _404  and  _405
REMARK  167  A    between atoms: _405  and  _406
REMARK  168  A    between atoms: _406  and  _407
REMARK  169  A    between atoms: _407  and  _408
REMARK  170  A    between atoms: _412  and  _414
REMARK  171  A    between atoms: _414  and  _415
REMARK  172  A    between atoms: _414  and  _417
REMARK  173  A    between atoms: _417  and  _418
REMARK  174  A    between atoms: _418  and  _419
REMARK  175  A    between atoms: _421  and  _423
REMARK  176  A    between atoms: _423  and  _424
REMARK  177  A    between atoms: _423  and  _426
REMARK  178  A    between atoms: _426  and  _427
REMARK  179  A    between atoms: _430  and  _432
REMARK  180  A    between atoms: _432  and  _433
REMARK  181  A    between atoms: _435  and  _437
REMARK  182  A    between atoms: _437  and  _438
REMARK  183  A    between atoms: _440  and  _442
REMARK  184  A    between atoms: _442  and  _443
REMARK  185  A    between atoms: _442  and  _445
REMARK  186  A    between atoms: _445  and  _446
REMARK  187  A    between atoms: _449  and  _451
REMARK  188  A    between atoms: _451  and  _452
REMARK  189  A    between atoms: _454  and  _456
REMARK  190  A    between atoms: _456  and  _457
REMARK  191  A    between atoms: _459  and  _461
REMARK  192  A    between atoms: _461  and  _462
REMARK  193  A    between atoms: _461  and  _464
REMARK  194  A    between atoms: _464  and  _465
REMARK  195  A    between atoms: _468  and  _470
REMARK  196  A    between atoms: _470  and  _471
REMARK  197  A    between atoms: _470  and  _473
REMARK  198  A    between atoms: _476  and  _478
REMARK  199  A    between atoms: _478  and  _479
REMARK  200  A    between atoms: _478  and  _481
REMARK  201  A    between atoms: _481  and  _482
REMARK  202  A    between atoms: _486  and  _487
REMARK  203  A    between atoms: _492  and  _494
REMARK  204  A    between atoms: _494  and  _495
REMARK  205  A    between atoms: _494  and  _497
REMARK  206  A    between atoms: _497  and  _498
REMARK  207  A    between atoms: _502  and  _503
REMARK  208  A    between atoms: _508  and  _510
REMARK  209  A    between atoms: _510  and  _511
REMARK  210  A    between atoms: _510  and  _513
REMARK  211  A    between atoms: _516  and  _518
REMARK  212  A    between atoms: _518  and  _519
REMARK  213  A    between atoms: _518  and  _521
REMARK  214  A    between atoms: _521  and  _522
REMARK  215  A    between atoms: _527  and  _529
REMARK  216  A    between atoms: _529  and  _530
REMARK  217  A    between atoms: _529  and  _532
REMARK  218  A    between atoms: _532  and  _533
REMARK  219  A    between atoms: _536  and  _538
REMARK  220  A    between atoms: _538  and  _539
REMARK  221  A    between atoms: _538  and  _541
REMARK  222  A    between atoms: _541  and  _542
REMARK  223  A    between atoms: _545  and  _547
REMARK  224  A    between atoms: _547  and  _548
REMARK  225  A    between atoms: _550  and  _552
REMARK  226  A    between atoms: _552  and  _553
REMARK  227  A    between atoms: _552  and  _555
REMARK  228  A    between atoms: _555  and  _556
REMARK  229  A    between atoms: _556  and  _557
REMARK  230  A    between atoms: _557  and  _558
REMARK  231  A    between atoms: _567  and  _569
REMARK  232  A    between atoms: _569  and  _570
REMARK  233  A    between atoms: _569  and  _572
REMARK  234  A    between atoms: _572  and  _573
REMARK                            x       y       z     vdW  Elec       q    Type
REMARK                         _______ _______ _______ _____ _____    ______ ____
ROOT
ATOM      1  C   ILE A   3     -14.854  29.715 -17.069  0.00  0.00    +0.241 C 
ATOM      2  N   GLY A   4     -15.467  28.807 -16.326  0.00  0.00    -0.295 N 
ATOM      3  H   GLY A   4     -16.395  28.462 -16.646  0.00  0.00    +0.150 HD
ATOM      4  O   ILE A   3     -13.747  30.177 -16.831  0.00  0.00    -0.273 OA
ENDROOT
BRANCH   2   5
ATOM      5  CA  GLY A   4     -14.929  28.264 -15.098  0.00  0.00    +0.176 C 
BRANCH   5   6
ATOM      6  C   GLY A   4     -14.253  26.928 -15.286  0.00  0.00    +0.243 C 
ATOM      7  N   GLY A   5     -12.942  26.871 -15.062  0.00  0.00    -0.295 N 
ATOM      8  H   GLY A   5     -12.427  27.744 -14.829  0.00  0.00    +0.150 HD
ATOM      9  O   GLY A   4     -14.906  25.943 -15.635  0.00  0.00    -0.273 OA
BRANCH   7  10
ATOM     10  CA  GLY A   5     -12.215  25.615 -15.136  0.00  0.00    +0.176 C 
BRANCH  10  11
ATOM     11  C   GLY A   5     -11.789  25.154 -13.760  0.00  0.00    +0.243 C 
ATOM     12  O   GLY A   5     -12.152  25.725 -12.733  0.00  0.00    -0.273 OA
ATOM     13  N   ILE A   6     -10.987  24.088 -13.725  0.00  0.00    -0.297 N 
ATOM     14  H   ILE A   6     -10.654  23.633 -14.599  0.00  0.00    +0.150 HD
BRANCH  13  15
ATOM     15  CA  ILE A   6     -10.597  23.587 -12.412  0.00  0.00    +0.149 C 
BRANCH  15  16
ATOM     16  C   ILE A   6      -9.694  24.580 -11.682  0.00  0.00    +0.241 C 
ATOM     17  O   ILE A   6      -9.730  24.603 -10.452  0.00  0.00    -0.273 OA
ATOM     18  N   GLY A   7      -8.924  25.356 -12.425  0.00  0.00    -0.295 N 
ATOM     19  H   GLY A   7      -8.998  25.290 -13.460  0.00  0.00    +0.150 HD
BRANCH  18  20
ATOM     20  CA  GLY A   7      -7.981  26.295 -11.851  0.00  0.00    +0.176 C 
BRANCH  20  21
ATOM     21  C   GLY A   7      -8.520  27.712 -11.803  0.00  0.00    +0.243 C 
ATOM     22  O   GLY A   7      -7.754  28.653 -11.573  0.00  0.00    -0.273 OA
ATOM     23  N   GLY A   8      -9.823  27.860 -12.029  0.00  0.00    -0.296 N 
ATOM     24  H   GLY A   8     -10.405  27.025 -12.243  0.00  0.00    +0.150 HD
BRANCH  23  25
ATOM     25  CA  GLY A   8     -10.442  29.173 -11.981  0.00  0.00    +0.163 C 
BRANCH  25  26
ATOM     26  C   GLY A   8     -11.084  29.590 -13.290  0.00  0.00    +0.229 C 
ATOM     27  O   GLY A   8     -11.072  28.833 -14.253  0.00  0.00    -0.286 OA
ENDBRANCH  25  26
ENDBRANCH  23  25
ENDBRANCH  20  21
ENDBRANCH  18  20
ENDBRANCH  15  16
BRANCH  15  28
ATOM     28  CB  ILE A   6      -9.877  22.231 -12.458  0.00  0.00    +0.027 C 
ATOM     29  CG2 ILE A   6      -8.416  22.384 -12.851  0.00  0.00    +0.002 C 
BRANCH  28  30
ATOM     30  CG1 ILE A   6      -9.979  21.453 -11.143  0.00  0.00    +0.002 C 
ATOM     31  CD1 ILE A   6      -9.590  19.997 -11.317  0.00  0.00    +0.000 C 
ENDBRANCH  28  30
ENDBRANCH  15  28
ENDBRANCH  13  15
ENDBRANCH  10  11
ENDBRANCH   7  10
ENDBRANCH   5   6
ENDBRANCH   2   5
BRANCH   1  32
ATOM     32  CA  ILE A   3     -15.653  30.179 -18.292  0.00  0.00    +0.149 C 
BRANCH  32  35
ATOM     33  C   MET A   2     -16.374  32.417 -18.599  0.00  0.00    +0.241 C 
ATOM     34  O   MET A   2     -17.540  32.075 -18.408  0.00  0.00    -0.273 OA
ATOM     35  N   ILE A   3     -15.351  31.572 -18.593  0.00  0.00    -0.297 N 
ATOM     36  H   ILE A   3     -14.381  31.889 -18.793  0.00  0.00    +0.150 HD
BRANCH  33  37
ATOM     37  CA  MET A   2     -16.133  33.909 -18.823  0.00  0.00    +0.149 C 
BRANCH  37  39
ATOM     38  C   LYS A   1     -16.418  34.547 -21.172  0.00  0.00    +0.238 C 
ATOM     39  N   MET A   2     -16.903  34.342 -19.959  0.00  0.00    -0.297 N 
ATOM     40  H   MET A   2     -17.920  34.506 -19.815  0.00  0.00    +0.150 HD
ATOM     41  O   LYS A   1     -15.223  34.504 -21.451  0.00  0.00    -0.274 OA
BRANCH  38  42
ATOM     42  CA  LYS A   1     -17.439  34.898 -22.249  0.00  0.00    +0.145 C 
BRANCH  42  43
ATOM     43  N   LYS A   1     -16.942  36.039 -23.000  0.00  0.00    -0.238 NA
ATOM     44  H   LYS A   1     -15.913  36.121 -23.130  0.00  0.00    +0.142 HD
ENDBRANCH  42  43
BRANCH  42  45
ATOM     45  CB  LYS A   1     -17.716  33.773 -23.237  0.00  0.00    +0.026 C 
BRANCH  45  46
ATOM     46  CG  LYS A   1     -17.989  32.412 -22.647  0.00  0.00    -0.000 C 
BRANCH  46  47
ATOM     47  CD  LYS A   1     -19.312  32.430 -21.907  0.00  0.00    -0.024 C 
BRANCH  47  48
ATOM     48  CE  LYS A   1     -19.815  31.013 -21.645  0.00  0.00    -0.086 C 
BRANCH  48  49
ATOM     49  NZ  LYS A   1     -21.179  31.081 -21.067  0.00  0.00    +0.380 N 
ATOM     50  HZ1 LYS A   1     -21.150  31.613 -20.174  0.00  0.00    -0.089 HD
ATOM     51  HZ2 LYS A   1     -21.526  30.117 -20.887  0.00  0.00    -0.089 HD
ATOM     52  HZ3 LYS A   1     -21.814  31.560 -21.737  0.00  0.00    -0.089 HD
ENDBRANCH  48  49
ENDBRANCH  47  48
ENDBRANCH  46  47
ENDBRANCH  45  46
ENDBRANCH  42  45
ENDBRANCH  38  42
ENDBRANCH  37  39
BRANCH  37  53
ATOM     53  CB  MET A   2     -16.552  34.562 -17.506  0.00  0.00    +0.041 C 
BRANCH  53  54
ATOM     54  CG  MET A   2     -16.164  35.992 -17.278  0.00  0.00    +0.060 C 
BRANCH  54  55
ATOM     55  SD  MET A   2     -14.465  36.366 -17.702  0.00  0.00    -0.139 S 
ATOM     56  CE  MET A   2     -13.585  35.364 -16.502  0.00  0.00    +0.069 C 
ENDBRANCH  54  55
ENDBRANCH  53  54
ENDBRANCH  37  53
ENDBRANCH  33  37
ENDBRANCH  32  35
BRANCH  32  57
ATOM     57  CB  ILE A   3     -15.347  29.239 -19.462  0.00  0.00    +0.027 C 
ATOM     58  CG2 ILE A   3     -16.340  29.453 -20.592  0.00  0.00    +0.002 C 
BRANCH  57  59
ATOM     59  CG1 ILE A   3     -13.906  29.339 -19.962  0.00  0.00    +0.002 C 
ATOM     60  CD1 ILE A   3     -13.607  28.321 -21.056  0.00  0.00    +0.000 C 
ENDBRANCH  57  59
ENDBRANCH  32  57
ENDBRANCH   1  32
TORSDOF 28
REMARK  Name = ../refined-set-2016/3bgc/3bgc_pocket.pdb
REMARK  234 active torsions:
REMARK  status: ('A' for Active; 'I' for Inactive)
REMARK    1  A    between atoms: _1  and  _3
REMARK    2  A    between atoms: _3  and  _4
REMARK    3  A    between atoms: _3  and  _6
REMARK    4  A    between atoms: _6  and  _7
REMARK    5  A    between atoms: _7  and  _8
REMARK    6  A    between atoms: _8  and  _9
REMARK    7  A    between atoms: _18  and  _20
REMARK    8  A    between atoms: _20  and  _21
REMARK    9  A    between atoms: _20  and  _23
REMARK   10  A    between atoms: _23  and  _24
REMARK   11  A    between atoms: _27  and  _29
REMARK   12  A    between atoms: _29  and  _30
REMARK   13  A    between atoms: _29  and  _32
REMARK   14  A    between atoms: _32  and  _33
REMARK   15  A    between atoms: _36  and  _38
REMARK   16  A    between atoms: _38  and  _39
REMARK   17  A    between atoms: _38  and  _41
REMARK   18  A    between atoms: _41  and  _42
REMARK   19  A    between atoms: _45  and  _47
REMARK   20  A    between atoms: _47  and  _48
REMARK   21  A    between atoms: _50  and  _52
REMARK   22  A    between atoms: _52  and  _53
REMARK   23  A    between atoms: _56  and  _58
REMARK   24  A    between atoms: _58  and  _59
REMARK   25  A    between atoms: _58  and  _61
REMARK   26  A    between atoms: _61  and  _62
REMARK   27  A    between atoms: _65  and  _67
REMARK   28  A    between atoms: _67  and  _68
REMARK   29  A    between atoms: _67  and  _70
REMARK   30  A    between atoms: _70  and  _71
REMARK   31  A    between atoms: _74  and  _76
REMARK   32  A    between atoms: _76  and  _77
REMARK   33  A    between atoms: _76  and  _79
REMARK   34  A    between atoms: _79  and  _80
REMARK   35  A    between atoms: _83  and  _85
REMARK   36  A    between atoms: _85  and  _86
REMARK   37  A    between atoms: _85  and  _88
REMARK   38  A    between atoms: _91  and  _93
REMARK   39  A    between atoms: _93  and  _94
REMARK   40  A    between atoms: _93  and  _96
REMARK   41  A    between atoms: _96  and  _97
REMARK   42  A    between atoms: _100  and  _102
REMARK   43  A    between atoms: _102  and  _103
REMARK   44  A    between atoms: _102  and  _105
REMARK   45  A    between atoms: _105  and  _106
REMARK   46  A    between atoms: _106  and  _107
REMARK   47  A    between atoms: _107  and  _108
REMARK   48  A    between atoms: _108  and  _109
REMARK   49  A    between atoms: _113  and  _115
REMARK   50  A    between atoms: _115  and  _116
REMARK   51  A    between atoms: _115  and  _118
REMARK   52  A    between atoms: _118  and  _119
REMARK   53  A    between atoms: _119  and  _120
REMARK   54  A    between atoms: _122  and  _124
REMARK   55  A    between atoms: _124  and  _125
REMARK   56  A    between atoms: _124  and  _127
REMARK   57  A    between atoms: _127  and  _128
REMARK   58  A    between atoms: _131  and  _133
REMARK   59  A    between atoms: _133  and  _134
REMARK   60  A    between atoms: _136  and  _138
REMARK   61  A    between atoms: _138  and  _139
REMARK   62  A    between atoms: _141  and  _143
REMARK   63  A    between atoms: _143  and  _144
REMARK   64  A    between atoms: _143  and  _146
REMARK   65  A    between atoms: _146  and  _147
REMARK   66  A    between atoms: _150  and  _152
REMARK   67  A    between atoms: _152  and  _153
REMARK   68  A    between atoms: _155  and  _157
REMARK   69  A    between atoms: _157  and  _158
REMARK   70  A    between atoms: _160  and  _162
REMARK   71  A    between atoms: _162  and  _163
REMARK   72  A    between atoms: _162  and  _165
REMARK   73  A    between atoms: _165  and  _166
REMARK   74  A    between atoms: _172  and  _174
REMARK   75  A    between atoms: _174  and  _175
REMARK   76  A    between atoms: _174  and  _177
REMARK   77  A    between atoms: _177  and  _178
REMARK   78  A    between atoms: _181  and  _183
REMARK   79  A    between atoms: _183  and  _184
REMARK   80  A    between atoms: _183  and  _186
REMARK   81  A    between atoms: _189  and  _191
REMARK   82  A    between atoms: _191  and  _192
REMARK   83  A    between atoms: _191  and  _194
REMARK   84  A    between atoms: _194  and  _195
REMARK   85  A    between atoms: _199  and  _200
REMARK   86  A    between atoms: _205  and  _207
REMARK   87  A    between atoms: _207  and  _208
REMARK   88  A    between atoms: _207  and  _210
REMARK   89  A    between atoms: _210  and  _211
REMARK   90  A    between atoms: _215  and  _216
REMARK   91  A    between atoms: _221  and  _223
REMARK   92  A    between atoms: _223  and  _224
REMARK   93  A    between atoms: _223  and  _226
REMARK   94  A    between atoms: _229  and  _231
REMARK   95  A    between atoms: _231  and  _232
REMARK   96  A    between atoms: _231  and  _234
REMARK   97  A    between atoms: _234  and  _235
REMARK   98  A    between atoms: _240  and  _242
REMARK   99  A    between atoms: _242  and  _243
REMARK  100  A    between atoms: _242  and  _245
REMARK  101  A    between atoms: _245  and  _246
REMARK  102  A    between atoms: _249  and  _251
REMARK  103  A    between atoms: _251  and  _252
REMARK  104  A    between atoms: _251  and  _254
REMARK  105  A    between atoms: _254  and  _255
REMARK  106  A    between atoms: _258  and  _260
REMARK  107  A    between atoms: _260  and  _261
REMARK  108  A    between atoms: _263  and  _265
REMARK  109  A    between atoms: _265  and  _266
REMARK  110  A    between atoms: _265  and  _268
REMARK  111  A    between atoms: _268  and  _269
REMARK  112  A    between atoms: _269  and  _270
REMARK  113  A    between atoms: _270  and  _271
REMARK  114  A    between atoms: _280  and  _282
REMARK  115  A    between atoms: _282  and  _283
REMARK  116  A    between atoms: _282  and  _285
REMARK  117  A    between atoms: _285  and  _286
REMARK  118  A    between atoms: _291  and  _293
REMARK  119  A    between atoms: _293  and  _294
REMARK  120  A    between atoms: _293  and  _296
REMARK  121  A    between atoms: _296  and  _297
REMARK  122  A    between atoms: _297  and  _298
REMARK  123  A    between atoms: _298  and  _299
REMARK  124  A    between atoms: _308  and  _310
REMARK  125  A    between atoms: _310  and  _311
REMARK  126  A    between atoms: _310  and  _313
REMARK  127  A    between atoms: _313  and  _314
REMARK  128  A    between atoms: _317  and  _319
REMARK  129  A    between atoms: _319  and  _320
REMARK  130  A    between atoms: _319  and  _322
REMARK  131  A    between atoms: _322  and  _323
REMARK  132  A    between atoms: _326  and  _328
REMARK  133  A    between atoms: _328  and  _329
REMARK  134  A    between atoms: _328  and  _331
REMARK  135  A    between atoms: _331  and  _332
REMARK  136  A    between atoms: _335  and  _337
REMARK  137  A    between atoms: _337  and  _338
REMARK  138  A    between atoms: _337  and  _340
REMARK  139  A    between atoms: _340  and  _341
REMARK  140  A    between atoms: _344  and  _346
REMARK  141  A    between atoms: _346  and  _347
REMARK  142  A    between atoms: _349  and  _351
REMARK  143  A    between atoms: _351  and  _352
REMARK  144  A    between atoms: _355  and  _357
REMARK  145  A    between atoms: _357  and  _358
REMARK  146  A    between atoms: _357  and  _360
REMARK  147  A    between atoms: _360  and  _361
REMARK  148  A    between atoms: _364  and  _366
REMARK  149  A    between atoms: _366  and  _367
REMARK  150  A    between atoms: _366  and  _369
REMARK  151  A    between atoms: _369  and  _370
REMARK  152  A    between atoms: _373  and  _375
REMARK  153  A    between atoms: _375  and  _376
REMARK  154  A    between atoms: _375  and  _378
REMARK  155  A    between atoms: _378  and  _379
REMARK  156  A    between atoms: _382  and  _384
REMARK  157  A    between atoms: _384  and  _385
REMARK  158  A    between atoms: _384  and  _387
REMARK  159  A    between atoms: _390  and  _392
REMARK  160  A    between atoms: _392  and  _393
REMARK  161  A    between atoms: _392  and  _395
REMARK  162  A    between atoms: _395  and  _396
REMARK  163  A    between atoms: _399  and  _401
REMARK  164  A    between atoms: _401  and  _402
REMARK  165  A    between atoms: _401  and  _404
REMARK  166  A    between atoms: _404  and  _405
REMARK  167  A    between atoms: _405  and  _406
REMARK  168  A    between atoms: _406  and  _407
REMARK  169  A    between atoms: _407  and  _408
REMARK  170  A    between atoms: _412  and  _414
REMARK  171  A    between atoms: _414  and  _415
REMARK  172  A    between atoms: _414  and  _417
REMARK  173  A    between atoms: _417  and  _418
REMARK  174  A    between atoms: _418  and  _419
REMARK  175  A    between atoms: _421  and  _423
REMARK  176  A    between atoms: _423  and  _424
REMARK  177  A    between atoms: _423  and  _426
REMARK  178  A    between atoms: _426  and  _427
REMARK  179  A    between atoms: _430  and  _432
REMARK  180  A    between atoms: _432  and  _433
REMARK  181  A    between atoms: _435  and  _437
REMARK  182  A    between atoms: _437  and  _438
REMARK  183  A    between atoms: _440  and  _442
REMARK  184  A    between atoms: _442  and  _443
REMARK  185  A    between atoms: _442  and  _445
REMARK  186  A    between atoms: _445  and  _446
REMARK  187  A    between atoms: _449  and  _451
REMARK  188  A    between atoms: _451  and  _452
REMARK  189  A    between atoms: _454  and  _456
REMARK  190  A    between atoms: _456  and  _457
REMARK  191  A    between atoms: _459  and  _461
REMARK  192  A    between atoms: _461  and  _462
REMARK  193  A    between atoms: _461  and  _464
REMARK  194  A    between atoms: _464  and  _465
REMARK  195  A    between atoms: _468  and  _470
REMARK  196  A    between atoms: _470  and  _471
REMARK  197  A    between atoms: _470  and  _473
REMARK  198  A    between atoms: _476  and  _478
REMARK  199  A    between atoms: _478  and  _479
REMARK  200  A    between atoms: _478  and  _481
REMARK  201  A    between atoms: _481  and  _482
REMARK  202  A    between atoms: _486  and  _487
REMARK  203  A    between atoms: _492  and  _494
REMARK  204  A    between atoms: _494  and  _495
REMARK  205  A    between atoms: _494  and  _497
REMARK  206  A    between atoms: _497  and  _498
REMARK  207  A    between atoms: _502  and  _503
REMARK  208  A    between atoms: _508  and  _510
REMARK  209  A    between atoms: _510  and  _511
REMARK  210  A    between atoms: _510  and  _513
REMARK  211  A    between atoms: _516  and  _518
REMARK  212  A    between atoms: _518  and  _519
REMARK  213  A    between atoms: _518  and  _521
REMARK  214  A    between atoms: _521  and  _522
REMARK  215  A    between atoms: _527  and  _529
REMARK  216  A    between atoms: _529  and  _530
REMARK  217  A    between atoms: _529  and  _532
REMARK  218  A    between atoms: _532  and  _533
REMARK  219  A    between atoms: _536  and  _538
REMARK  220  A    between atoms: _538  and  _539
REMARK  221  A    between atoms: _538  and  _541
REMARK  222  A    between atoms: _541  and  _542
REMARK  223  A    between atoms: _545  and  _547
REMARK  224  A    between atoms: _547  and  _548
REMARK  225  A    between atoms: _550  and  _552
REMARK  226  A    between atoms: _552  and  _553
REMARK  227  A    between atoms: _552  and  _555
REMARK  228  A    between atoms: _555  and  _556
REMARK  229  A    between atoms: _556  and  _557
REMARK  230  A    between atoms: _557  and  _558
REMARK  231  A    between atoms: _567  and  _569
REMARK  232  A    between atoms: _569  and  _570
REMARK  233  A    between atoms: _569  and  _572
REMARK  234  A    between atoms: _572  and  _573
REMARK                            x       y       z     vdW  Elec       q    Type
REMARK                         _______ _______ _______ _____ _____    ______ ____
ROOT
ATOM      1  CA  ILE A   1     -10.899  32.661 -17.739  0.00  0.00    +0.133 C 
ENDROOT
BRANCH   1   2
ATOM      2  N   ILE A   1     -11.663  31.934 -16.742  0.00  0.00    -0.239 NA
ATOM      3  H   ILE A   1     -12.432  31.305 -17.049  0.00  0.00    +0.142 HD
ENDBRANCH   1   2
BRANCH   1   4
ATOM      4  CB  ILE A   1      -9.806  31.862 -18.460  0.00  0.00    +0.023 C 
ATOM      5  CG2 ILE A   1      -8.782  31.338 -17.464  0.00  0.00    +0.002 C 
BRANCH   4   6
ATOM      6  CG1 ILE A   1     -10.358  30.746 -19.351  0.00  0.00    +0.002 C 
ATOM      7  CD1 ILE A   1      -9.305  29.959 -20.094  0.00  0.00    +0.000 C 
ENDBRANCH   4   6
ENDBRANCH   1   4
BRANCH   1   8
ATOM      8  C   ILE A   1     -11.830  33.214 -18.834  0.00  0.00    +0.224 C 
ATOM      9  O   ILE A   1     -12.962  32.767 -18.952  0.00  0.00    -0.287 OA
ENDBRANCH   1   8
TORSDOF 4
REMARK  Name = ../refined-set-2016/3bgc/3bgc_pocket.pdb
REMARK  234 active torsions:
REMARK  status: ('A' for Active; 'I' for Inactive)
REMARK    1  A    between atoms: _1  and  _3
REMARK    2  A    between atoms: _3  and  _4
REMARK    3  A    between atoms: _3  and  _6
REMARK    4  A    between atoms: _6  and  _7
REMARK    5  A    between atoms: _7  and  _8
REMARK    6  A    between atoms: _8  and  _9
REMARK    7  A    between atoms: _18  and  _20
REMARK    8  A    between atoms: _20  and  _21
REMARK    9  A    between atoms: _20  and  _23
REMARK   10  A    between atoms: _23  and  _24
REMARK   11  A    between atoms: _27  and  _29
REMARK   12  A    between atoms: _29  and  _30
REMARK   13  A    between atoms: _29  and  _32
REMARK   14  A    between atoms: _32  and  _33
REMARK   15  A    between atoms: _36  and  _38
REMARK   16  A    between atoms: _38  and  _39
REMARK   17  A    between atoms: _38  and  _41
REMARK   18  A    between atoms: _41  and  _42
REMARK   19  A    between atoms: _45  and  _47
REMARK   20  A    between atoms: _47  and  _48
REMARK   21  A    between atoms: _50  and  _52
REMARK   22  A    between atoms: _52  and  _53
REMARK   23  A    between atoms: _56  and  _58
REMARK   24  A    between atoms: _58  and  _59
REMARK   25  A    between atoms: _58  and  _61
REMARK   26  A    between atoms: _61  and  _62
REMARK   27  A    between atoms: _65  and  _67
REMARK   28  A    between atoms: _67  and  _68
REMARK   29  A    between atoms: _67  and  _70
REMARK   30  A    between atoms: _70  and  _71
REMARK   31  A    between atoms: _74  and  _76
REMARK   32  A    between atoms: _76  and  _77
REMARK   33  A    between atoms: _76  and  _79
REMARK   34  A    between atoms: _79  and  _80
REMARK   35  A    between atoms: _83  and  _85
REMARK   36  A    between atoms: _85  and  _86
REMARK   37  A    between atoms: _85  and  _88
REMARK   38  A    between atoms: _91  and  _93
REMARK   39  A    between atoms: _93  and  _94
REMARK   40  A    between atoms: _93  and  _96
REMARK   41  A    between atoms: _96  and  _97
REMARK   42  A    between atoms: _100  and  _102
REMARK   43  A    between atoms: _102  and  _103
REMARK   44  A    between atoms: _102  and  _105
REMARK   45  A    between atoms: _105  and  _106
REMARK   46  A    between atoms: _106  and  _107
REMARK   47  A    between atoms: _107  and  _108
REMARK   48  A    between atoms: _108  and  _109
REMARK   49  A    between atoms: _113  and  _115
REMARK   50  A    between atoms: _115  and  _116
REMARK   51  A    between atoms: _115  and  _118
REMARK   52  A    between atoms: _118  and  _119
REMARK   53  A    between atoms: _119  and  _120
REMARK   54  A    between atoms: _122  and  _124
REMARK   55  A    between atoms: _124  and  _125
REMARK   56  A    between atoms: _124  and  _127
REMARK   57  A    between atoms: _127  and  _128
REMARK   58  A    between atoms: _131  and  _133
REMARK   59  A    between atoms: _133  and  _134
REMARK   60  A    between atoms: _136  and  _138
REMARK   61  A    between atoms: _138  and  _139
REMARK   62  A    between atoms: _141  and  _143
REMARK   63  A    between atoms: _143  and  _144
REMARK   64  A    between atoms: _143  and  _146
REMARK   65  A    between atoms: _146  and  _147
REMARK   66  A    between atoms: _150  and  _152
REMARK   67  A    between atoms: _152  and  _153
REMARK   68  A    between atoms: _155  and  _157
REMARK   69  A    between atoms: _157  and  _158
REMARK   70  A    between atoms: _160  and  _162
REMARK   71  A    between atoms: _162  and  _163
REMARK   72  A    between atoms: _162  and  _165
REMARK   73  A    between atoms: _165  and  _166
REMARK   74  A    between atoms: _172  and  _174
REMARK   75  A    between atoms: _174  and  _175
REMARK   76  A    between atoms: _174  and  _177
REMARK   77  A    between atoms: _177  and  _178
REMARK   78  A    between atoms: _181  and  _183
REMARK   79  A    between atoms: _183  and  _184
REMARK   80  A    between atoms: _183  and  _186
REMARK   81  A    between atoms: _189  and  _191
REMARK   82  A    between atoms: _191  and  _192
REMARK   83  A    between atoms: _191  and  _194
REMARK   84  A    between atoms: _194  and  _195
REMARK   85  A    between atoms: _199  and  _200
REMARK   86  A    between atoms: _205  and  _207
REMARK   87  A    between atoms: _207  and  _208
REMARK   88  A    between atoms: _207  and  _210
REMARK   89  A    between atoms: _210  and  _211
REMARK   90  A    between atoms: _215  and  _216
REMARK   91  A    between atoms: _221  and  _223
REMARK   92  A    between atoms: _223  and  _224
REMARK   93  A    between atoms: _223  and  _226
REMARK   94  A    between atoms: _229  and  _231
REMARK   95  A    between atoms: _231  and  _232
REMARK   96  A    between atoms: _231  and  _234
REMARK   97  A    between atoms: _234  and  _235
REMARK   98  A    between atoms: _240  and  _242
REMARK   99  A    between atoms: _242  and  _243
REMARK  100  A    between atoms: _242  and  _245
REMARK  101  A    between atoms: _245  and  _246
REMARK  102  A    between atoms: _249  and  _251
REMARK  103  A    between atoms: _251  and  _252
REMARK  104  A    between atoms: _251  and  _254
REMARK  105  A    between atoms: _254  and  _255
REMARK  106  A    between atoms: _258  and  _260
REMARK  107  A    between atoms: _260  and  _261
REMARK  108  A    between atoms: _263  and  _265
REMARK  109  A    between atoms: _265  and  _266
REMARK  110  A    between atoms: _265  and  _268
REMARK  111  A    between atoms: _268  and  _269
REMARK  112  A    between atoms: _269  and  _270
REMARK  113  A    between atoms: _270  and  _271
REMARK  114  A    between atoms: _280  and  _282
REMARK  115  A    between atoms: _282  and  _283
REMARK  116  A    between atoms: _282  and  _285
REMARK  117  A    between atoms: _285  and  _286
REMARK  118  A    between atoms: _291  and  _293
REMARK  119  A    between atoms: _293  and  _294
REMARK  120  A    between atoms: _293  and  _296
REMARK  121  A    between atoms: _296  and  _297
REMARK  122  A    between atoms: _297  and  _298
REMARK  123  A    between atoms: _298  and  _299
REMARK  124  A    between atoms: _308  and  _310
REMARK  125  A    between atoms: _310  and  _311
REMARK  126  A    between atoms: _310  and  _313
REMARK  127  A    between atoms: _313  and  _314
REMARK  128  A    between atoms: _317  and  _319
REMARK  129  A    between atoms: _319  and  _320
REMARK  130  A    between atoms: _319  and  _322
REMARK  131  A    between atoms: _322  and  _323
REMARK  132  A    between atoms: _326  and  _328
REMARK  133  A    between atoms: _328  and  _329
REMARK  134  A    between atoms: _328  and  _331
REMARK  135  A    between atoms: _331  and  _332
REMARK  136  A    between atoms: _335  and  _337
REMARK  137  A    between atoms: _337  and  _338
REMARK  138  A    between atoms: _337  and  _340
REMARK  139  A    between atoms: _340  and  _341
REMARK  140  A    between atoms: _344  and  _346
REMARK  141  A    between atoms: _346  and  _347
REMARK  142  A    between atoms: _349  and  _351
REMARK  143  A    between atoms: _351  and  _352
REMARK  144  A    between atoms: _355  and  _357
REMARK  145  A    between atoms: _357  and  _358
REMARK  146  A    between atoms: _357  and  _360
REMARK  147  A    between atoms: _360  and  _361
REMARK  148  A    between atoms: _364  and  _366
REMARK  149  A    between atoms: _366  and  _367
REMARK  150  A    between atoms: _366  and  _369
REMARK  151  A    between atoms: _369  and  _370
REMARK  152  A    between atoms: _373  and  _375
REMARK  153  A    between atoms: _375  and  _376
REMARK  154  A    between atoms: _375  and  _378
REMARK  155  A    between atoms: _378  and  _379
REMARK  156  A    between atoms: _382  and  _384
REMARK  157  A    between atoms: _384  and  _385
REMARK  158  A    between atoms: _384  and  _387
REMARK  159  A    between atoms: _390  and  _392
REMARK  160  A    between atoms: _392  and  _393
REMARK  161  A    between atoms: _392  and  _395
REMARK  162  A    between atoms: _395  and  _396
REMARK  163  A    between atoms: _399  and  _401
REMARK  164  A    between atoms: _401  and  _402
REMARK  165  A    between atoms: _401  and  _404
REMARK  166  A    between atoms: _404  and  _405
REMARK  167  A    between atoms: _405  and  _406
REMARK  168  A    between atoms: _406  and  _407
REMARK  169  A    between atoms: _407  and  _408
REMARK  170  A    between atoms: _412  and  _414
REMARK  171  A    between atoms: _414  and  _415
REMARK  172  A    between atoms: _414  and  _417
REMARK  173  A    between atoms: _417  and  _418
REMARK  174  A    between atoms: _418  and  _419
REMARK  175  A    between atoms: _421  and  _423
REMARK  176  A    between atoms: _423  and  _424
REMARK  177  A    between atoms: _423  and  _426
REMARK  178  A    between atoms: _426  and  _427
REMARK  179  A    between atoms: _430  and  _432
REMARK  180  A    between atoms: _432  and  _433
REMARK  181  A    between atoms: _435  and  _437
REMARK  182  A    between atoms: _437  and  _438
REMARK  183  A    between atoms: _440  and  _442
REMARK  184  A    between atoms: _442  and  _443
REMARK  185  A    between atoms: _442  and  _445
REMARK  186  A    between atoms: _445  and  _446
REMARK  187  A    between atoms: _449  and  _451
REMARK  188  A    between atoms: _451  and  _452
REMARK  189  A    between atoms: _454  and  _456
REMARK  190  A    between atoms: _456  and  _457
REMARK  191  A    between atoms: _459  and  _461
REMARK  192  A    between atoms: _461  and  _462
REMARK  193  A    between atoms: _461  and  _464
REMARK  194  A    between atoms: _464  and  _465
REMARK  195  A    between atoms: _468  and  _470
REMARK  196  A    between atoms: _470  and  _471
REMARK  197  A    between atoms: _470  and  _473
REMARK  198  A    between atoms: _476  and  _478
REMARK  199  A    between atoms: _478  and  _479
REMARK  200  A    between atoms: _478  and  _481
REMARK  201  A    between atoms: _481  and  _482
REMARK  202  A    between atoms: _486  and  _487
REMARK  203  A    between atoms: _492  and  _494
REMARK  204  A    between atoms: _494  and  _495
REMARK  205  A    between atoms: _494  and  _497
REMARK  206  A    between atoms: _497  and  _498
REMARK  207  A    between atoms: _502  and  _503
REMARK  208  A    between atoms: _508  and  _510
REMARK  209  A    between atoms: _510  and  _511
REMARK  210  A    between atoms: _510  and  _513
REMARK  211  A    between atoms: _516  and  _518
REMARK  212  A    between atoms: _518  and  _519
REMARK  213  A    between atoms: _518  and  _521
REMARK  214  A    between atoms: _521  and  _522
REMARK  215  A    between atoms: _527  and  _529
REMARK  216  A    between atoms: _529  and  _530
REMARK  217  A    between atoms: _529  and  _532
REMARK  218  A    between atoms: _532  and  _533
REMARK  219  A    between atoms: _536  and  _538
REMARK  220  A    between atoms: _538  and  _539
REMARK  221  A    between atoms: _538  and  _541
REMARK  222  A    between atoms: _541  and  _542
REMARK  223  A    between atoms: _545  and  _547
REMARK  224  A    between atoms: _547  and  _548
REMARK  225  A    between atoms: _550  and  _552
REMARK  226  A    between atoms: _552  and  _553
REMARK  227  A    between atoms: _552  and  _555
REMARK  228  A    between atoms: _555  and  _556
REMARK  229  A    between atoms: _556  and  _557
REMARK  230  A    between atoms: _557  and  _558
REMARK  231  A    between atoms: _567  and  _569
REMARK  232  A    between atoms: _569  and  _570
REMARK  233  A    between atoms: _569  and  _572
REMARK  234  A    between atoms: _572  and  _573
REMARK                            x       y       z     vdW  Elec       q    Type
REMARK                         _______ _______ _______ _____ _____    ______ ____
ROOT
ATOM      1  CA  VAL A   1     -12.620  33.432 -24.085  0.00  0.00    +0.133 C 
ENDROOT
BRANCH   1   2
ATOM      2  CB  VAL A   1     -13.057  31.960 -24.101  0.00  0.00    +0.023 C 
ATOM      3  CG2 VAL A   1     -12.161  31.143 -23.196  0.00  0.00    +0.002 C 
ATOM      4  CG1 VAL A   1     -14.505  31.830 -23.658  0.00  0.00    +0.002 C 
ENDBRANCH   1   2
BRANCH   1   5
ATOM      5  N   VAL A   1     -12.744  34.027 -22.760  0.00  0.00    -0.239 NA
ATOM      6  H   VAL A   1     -13.685  34.315 -22.424  0.00  0.00    +0.142 HD
ENDBRANCH   1   5
BRANCH   1   7
ATOM      7  C   VAL A   1     -13.484  34.211 -25.075  0.00  0.00    +0.224 C 
ATOM      8  O   VAL A   1     -14.286  35.050 -24.658  0.00  0.00    -0.287 OA
ENDBRANCH   1   7
TORSDOF 3
REMARK  Name = ../refined-set-2016/3bgc/3bgc_pocket.pdb
REMARK  234 active torsions:
REMARK  status: ('A' for Active; 'I' for Inactive)
REMARK    1  A    between atoms: _1  and  _3
REMARK    2  A    between atoms: _3  and  _4
REMARK    3  A    between atoms: _3  and  _6
REMARK    4  A    between atoms: _6  and  _7
REMARK    5  A    between atoms: _7  and  _8
REMARK    6  A    between atoms: _8  and  _9
REMARK    7  A    between atoms: _18  and  _20
REMARK    8  A    between atoms: _20  and  _21
REMARK    9  A    between atoms: _20  and  _23
REMARK   10  A    between atoms: _23  and  _24
REMARK   11  A    between atoms: _27  and  _29
REMARK   12  A    between atoms: _29  and  _30
REMARK   13  A    between atoms: _29  and  _32
REMARK   14  A    between atoms: _32  and  _33
REMARK   15  A    between atoms: _36  and  _38
REMARK   16  A    between atoms: _38  and  _39
REMARK   17  A    between atoms: _38  and  _41
REMARK   18  A    between atoms: _41  and  _42
REMARK   19  A    between atoms: _45  and  _47
REMARK   20  A    between atoms: _47  and  _48
REMARK   21  A    between atoms: _50  and  _52
REMARK   22  A    between atoms: _52  and  _53
REMARK   23  A    between atoms: _56  and  _58
REMARK   24  A    between atoms: _58  and  _59
REMARK   25  A    between atoms: _58  and  _61
REMARK   26  A    between atoms: _61  and  _62
REMARK   27  A    between atoms: _65  and  _67
REMARK   28  A    between atoms: _67  and  _68
REMARK   29  A    between atoms: _67  and  _70
REMARK   30  A    between atoms: _70  and  _71
REMARK   31  A    between atoms: _74  and  _76
REMARK   32  A    between atoms: _76  and  _77
REMARK   33  A    between atoms: _76  and  _79
REMARK   34  A    between atoms: _79  and  _80
REMARK   35  A    between atoms: _83  and  _85
REMARK   36  A    between atoms: _85  and  _86
REMARK   37  A    between atoms: _85  and  _88
REMARK   38  A    between atoms: _91  and  _93
REMARK   39  A    between atoms: _93  and  _94
REMARK   40  A    between atoms: _93  and  _96
REMARK   41  A    between atoms: _96  and  _97
REMARK   42  A    between atoms: _100  and  _102
REMARK   43  A    between atoms: _102  and  _103
REMARK   44  A    between atoms: _102  and  _105
REMARK   45  A    between atoms: _105  and  _106
REMARK   46  A    between atoms: _106  and  _107
REMARK   47  A    between atoms: _107  and  _108
REMARK   48  A    between atoms: _108  and  _109
REMARK   49  A    between atoms: _113  and  _115
REMARK   50  A    between atoms: _115  and  _116
REMARK   51  A    between atoms: _115  and  _118
REMARK   52  A    between atoms: _118  and  _119
REMARK   53  A    between atoms: _119  and  _120
REMARK   54  A    between atoms: _122  and  _124
REMARK   55  A    between atoms: _124  and  _125
REMARK   56  A    between atoms: _124  and  _127
REMARK   57  A    between atoms: _127  and  _128
REMARK   58  A    between atoms: _131  and  _133
REMARK   59  A    between atoms: _133  and  _134
REMARK   60  A    between atoms: _136  and  _138
REMARK   61  A    between atoms: _138  and  _139
REMARK   62  A    between atoms: _141  and  _143
REMARK   63  A    between atoms: _143  and  _144
REMARK   64  A    between atoms: _143  and  _146
REMARK   65  A    between atoms: _146  and  _147
REMARK   66  A    between atoms: _150  and  _152
REMARK   67  A    between atoms: _152  and  _153
REMARK   68  A    between atoms: _155  and  _157
REMARK   69  A    between atoms: _157  and  _158
REMARK   70  A    between atoms: _160  and  _162
REMARK   71  A    between atoms: _162  and  _163
REMARK   72  A    between atoms: _162  and  _165
REMARK   73  A    between atoms: _165  and  _166
REMARK   74  A    between atoms: _172  and  _174
REMARK   75  A    between atoms: _174  and  _175
REMARK   76  A    between atoms: _174  and  _177
REMARK   77  A    between atoms: _177  and  _178
REMARK   78  A    between atoms: _181  and  _183
REMARK   79  A    between atoms: _183  and  _184
REMARK   80  A    between atoms: _183  and  _186
REMARK   81  A    between atoms: _189  and  _191
REMARK   82  A    between atoms: _191  and  _192
REMARK   83  A    between atoms: _191  and  _194
REMARK   84  A    between atoms: _194  and  _195
REMARK   85  A    between atoms: _199  and  _200
REMARK   86  A    between atoms: _205  and  _207
REMARK   87  A    between atoms: _207  and  _208
REMARK   88  A    between atoms: _207  and  _210
REMARK   89  A    between atoms: _210  and  _211
REMARK   90  A    between atoms: _215  and  _216
REMARK   91  A    between atoms: _221  and  _223
REMARK   92  A    between atoms: _223  and  _224
REMARK   93  A    between atoms: _223  and  _226
REMARK   94  A    between atoms: _229  and  _231
REMARK   95  A    between atoms: _231  and  _232
REMARK   96  A    between atoms: _231  and  _234
REMARK   97  A    between atoms: _234  and  _235
REMARK   98  A    between atoms: _240  and  _242
REMARK   99  A    between atoms: _242  and  _243
REMARK  100  A    between atoms: _242  and  _245
REMARK  101  A    between atoms: _245  and  _246
REMARK  102  A    between atoms: _249  and  _251
REMARK  103  A    between atoms: _251  and  _252
REMARK  104  A    between atoms: _251  and  _254
REMARK  105  A    between atoms: _254  and  _255
REMARK  106  A    between atoms: _258  and  _260
REMARK  107  A    between atoms: _260  and  _261
REMARK  108  A    between atoms: _263  and  _265
REMARK  109  A    between atoms: _265  and  _266
REMARK  110  A    between atoms: _265  and  _268
REMARK  111  A    between atoms: _268  and  _269
REMARK  112  A    between atoms: _269  and  _270
REMARK  113  A    between atoms: _270  and  _271
REMARK  114  A    between atoms: _280  and  _282
REMARK  115  A    between atoms: _282  and  _283
REMARK  116  A    between atoms: _282  and  _285
REMARK  117  A    between atoms: _285  and  _286
REMARK  118  A    between atoms: _291  and  _293
REMARK  119  A    between atoms: _293  and  _294
REMARK  120  A    between atoms: _293  and  _296
REMARK  121  A    between atoms: _296  and  _297
REMARK  122  A    between atoms: _297  and  _298
REMARK  123  A    between atoms: _298  and  _299
REMARK  124  A    between atoms: _308  and  _310
REMARK  125  A    between atoms: _310  and  _311
REMARK  126  A    between atoms: _310  and  _313
REMARK  127  A    between atoms: _313  and  _314
REMARK  128  A    between atoms: _317  and  _319
REMARK  129  A    between atoms: _319  and  _320
REMARK  130  A    between atoms: _319  and  _322
REMARK  131  A    between atoms: _322  and  _323
REMARK  132  A    between atoms: _326  and  _328
REMARK  133  A    between atoms: _328  and  _329
REMARK  134  A    between atoms: _328  and  _331
REMARK  135  A    between atoms: _331  and  _332
REMARK  136  A    between atoms: _335  and  _337
REMARK  137  A    between atoms: _337  and  _338
REMARK  138  A    between atoms: _337  and  _340
REMARK  139  A    between atoms: _340  and  _341
REMARK  140  A    between atoms: _344  and  _346
REMARK  141  A    between atoms: _346  and  _347
REMARK  142  A    between atoms: _349  and  _351
REMARK  143  A    between atoms: _351  and  _352
REMARK  144  A    between atoms: _355  and  _357
REMARK  145  A    between atoms: _357  and  _358
REMARK  146  A    between atoms: _357  and  _360
REMARK  147  A    between atoms: _360  and  _361
REMARK  148  A    between atoms: _364  and  _366
REMARK  149  A    between atoms: _366  and  _367
REMARK  150  A    between atoms: _366  and  _369
REMARK  151  A    between atoms: _369  and  _370
REMARK  152  A    between atoms: _373  and  _375
REMARK  153  A    between atoms: _375  and  _376
REMARK  154  A    between atoms: _375  and  _378
REMARK  155  A    between atoms: _378  and  _379
REMARK  156  A    between atoms: _382  and  _384
REMARK  157  A    between atoms: _384  and  _385
REMARK  158  A    between atoms: _384  and  _387
REMARK  159  A    between atoms: _390  and  _392
REMARK  160  A    between atoms: _392  and  _393
REMARK  161  A    between atoms: _392  and  _395
REMARK  162  A    between atoms: _395  and  _396
REMARK  163  A    between atoms: _399  and  _401
REMARK  164  A    between atoms: _401  and  _402
REMARK  165  A    between atoms: _401  and  _404
REMARK  166  A    between atoms: _404  and  _405
REMARK  167  A    between atoms: _405  and  _406
REMARK  168  A    between atoms: _406  and  _407
REMARK  169  A    between atoms: _407  and  _408
REMARK  170  A    between atoms: _412  and  _414
REMARK  171  A    between atoms: _414  and  _415
REMARK  172  A    between atoms: _414  and  _417
REMARK  173  A    between atoms: _417  and  _418
REMARK  174  A    between atoms: _418  and  _419
REMARK  175  A    between atoms: _421  and  _423
REMARK  176  A    between atoms: _423  and  _424
REMARK  177  A    between atoms: _423  and  _426
REMARK  178  A    between atoms: _426  and  _427
REMARK  179  A    between atoms: _430  and  _432
REMARK  180  A    between atoms: _432  and  _433
REMARK  181  A    between atoms: _435  and  _437
REMARK  182  A    between atoms: _437  and  _438
REMARK  183  A    between atoms: _440  and  _442
REMARK  184  A    between atoms: _442  and  _443
REMARK  185  A    between atoms: _442  and  _445
REMARK  186  A    between atoms: _445  and  _446
REMARK  187  A    between atoms: _449  and  _451
REMARK  188  A    between atoms: _451  and  _452
REMARK  189  A    between atoms: _454  and  _456
REMARK  190  A    between atoms: _456  and  _457
REMARK  191  A    between atoms: _459  and  _461
REMARK  192  A    between atoms: _461  and  _462
REMARK  193  A    between atoms: _461  and  _464
REMARK  194  A    between atoms: _464  and  _465
REMARK  195  A    between atoms: _468  and  _470
REMARK  196  A    between atoms: _470  and  _471
REMARK  197  A    between atoms: _470  and  _473
REMARK  198  A    between atoms: _476  and  _478
REMARK  199  A    between atoms: _478  and  _479
REMARK  200  A    between atoms: _478  and  _481
REMARK  201  A    between atoms: _481  and  _482
REMARK  202  A    between atoms: _486  and  _487
REMARK  203  A    between atoms: _492  and  _494
REMARK  204  A    between atoms: _494  and  _495
REMARK  205  A    between atoms: _494  and  _497
REMARK  206  A    between atoms: _497  and  _498
REMARK  207  A    between atoms: _502  and  _503
REMARK  208  A    between atoms: _508  and  _510
REMARK  209  A    between atoms: _510  and  _511
REMARK  210  A    between atoms: _510  and  _513
REMARK  211  A    between atoms: _516  and  _518
REMARK  212  A    between atoms: _518  and  _519
REMARK  213  A    between atoms: _518  and  _521
REMARK  214  A    between atoms: _521  and  _522
REMARK  215  A    between atoms: _527  and  _529
REMARK  216  A    between atoms: _529  and  _530
REMARK  217  A    between atoms: _529  and  _532
REMARK  218  A    between atoms: _532  and  _533
REMARK  219  A    between atoms: _536  and  _538
REMARK  220  A    between atoms: _538  and  _539
REMARK  221  A    between atoms: _538  and  _541
REMARK  222  A    between atoms: _541  and  _542
REMARK  223  A    between atoms: _545  and  _547
REMARK  224  A    between atoms: _547  and  _548
REMARK  225  A    between atoms: _550  and  _552
REMARK  226  A    between atoms: _552  and  _553
REMARK  227  A    between atoms: _552  and  _555
REMARK  228  A    between atoms: _555  and  _556
REMARK  229  A    between atoms: _556  and  _557
REMARK  230  A    between atoms: _557  and  _558
REMARK  231  A    between atoms: _567  and  _569
REMARK  232  A    between atoms: _569  and  _570
REMARK  233  A    between atoms: _569  and  _572
REMARK  234  A    between atoms: _572  and  _573
REMARK                            x       y       z     vdW  Elec       q    Type
REMARK                         _______ _______ _______ _____ _____    ______ ____
ROOT
ATOM      1  CA  LEU A   1     -15.596  29.530 -27.844  0.00  0.00    +0.133 C 
ENDROOT
BRANCH   1   2
ATOM      2  N   LEU A   1     -16.477  28.659 -28.602  0.00  0.00    -0.239 NA
ATOM      3  H   LEU A   1     -16.601  27.680 -28.274  0.00  0.00    +0.142 HD
ENDBRANCH   1   2
BRANCH   1   4
ATOM      4  C   LEU A   1     -14.143  29.288 -28.258  0.00  0.00    +0.224 C 
ATOM      5  O   LEU A   1     -13.766  28.160 -28.588  0.00  0.00    -0.287 OA
ENDBRANCH   1   4
BRANCH   1   6
ATOM      6  CB  LEU A   1     -15.743  29.316 -26.341  0.00  0.00    +0.025 C 
BRANCH   6   7
ATOM      7  CG  LEU A   1     -17.178  29.200 -25.807  0.00  0.00    +0.002 C 
ATOM      8  CD2 LEU A   1     -17.158  28.986 -24.303  0.00  0.00    +0.000 C 
ATOM      9  CD1 LEU A   1     -17.993  30.433 -26.167  0.00  0.00    +0.000 C 
ENDBRANCH   6   7
ENDBRANCH   1   6
TORSDOF 4
REMARK  Name = ../refined-set-2016/3bgc/3bgc_pocket.pdb
REMARK  234 active torsions:
REMARK  status: ('A' for Active; 'I' for Inactive)
REMARK    1  A    between atoms: _1  and  _3
REMARK    2  A    between atoms: _3  and  _4
REMARK    3  A    between atoms: _3  and  _6
REMARK    4  A    between atoms: _6  and  _7
REMARK    5  A    between atoms: _7  and  _8
REMARK    6  A    between atoms: _8  and  _9
REMARK    7  A    between atoms: _18  and  _20
REMARK    8  A    between atoms: _20  and  _21
REMARK    9  A    between atoms: _20  and  _23
REMARK   10  A    between atoms: _23  and  _24
REMARK   11  A    between atoms: _27  and  _29
REMARK   12  A    between atoms: _29  and  _30
REMARK   13  A    between atoms: _29  and  _32
REMARK   14  A    between atoms: _32  and  _33
REMARK   15  A    between atoms: _36  and  _38
REMARK   16  A    between atoms: _38  and  _39
REMARK   17  A    between atoms: _38  and  _41
REMARK   18  A    between atoms: _41  and  _42
REMARK   19  A    between atoms: _45  and  _47
REMARK   20  A    between atoms: _47  and  _48
REMARK   21  A    between atoms: _50  and  _52
REMARK   22  A    between atoms: _52  and  _53
REMARK   23  A    between atoms: _56  and  _58
REMARK   24  A    between atoms: _58  and  _59
REMARK   25  A    between atoms: _58  and  _61
REMARK   26  A    between atoms: _61  and  _62
REMARK   27  A    between atoms: _65  and  _67
REMARK   28  A    between atoms: _67  and  _68
REMARK   29  A    between atoms: _67  and  _70
REMARK   30  A    between atoms: _70  and  _71
REMARK   31  A    between atoms: _74  and  _76
REMARK   32  A    between atoms: _76  and  _77
REMARK   33  A    between atoms: _76  and  _79
REMARK   34  A    between atoms: _79  and  _80
REMARK   35  A    between atoms: _83  and  _85
REMARK   36  A    between atoms: _85  and  _86
REMARK   37  A    between atoms: _85  and  _88
REMARK   38  A    between atoms: _91  and  _93
REMARK   39  A    between atoms: _93  and  _94
REMARK   40  A    between atoms: _93  and  _96
REMARK   41  A    between atoms: _96  and  _97
REMARK   42  A    between atoms: _100  and  _102
REMARK   43  A    between atoms: _102  and  _103
REMARK   44  A    between atoms: _102  and  _105
REMARK   45  A    between atoms: _105  and  _106
REMARK   46  A    between atoms: _106  and  _107
REMARK   47  A    between atoms: _107  and  _108
REMARK   48  A    between atoms: _108  and  _109
REMARK   49  A    between atoms: _113  and  _115
REMARK   50  A    between atoms: _115  and  _116
REMARK   51  A    between atoms: _115  and  _118
REMARK   52  A    between atoms: _118  and  _119
REMARK   53  A    between atoms: _119  and  _120
REMARK   54  A    between atoms: _122  and  _124
REMARK   55  A    between atoms: _124  and  _125
REMARK   56  A    between atoms: _124  and  _127
REMARK   57  A    between atoms: _127  and  _128
REMARK   58  A    between atoms: _131  and  _133
REMARK   59  A    between atoms: _133  and  _134
REMARK   60  A    between atoms: _136  and  _138
REMARK   61  A    between atoms: _138  and  _139
REMARK   62  A    between atoms: _141  and  _143
REMARK   63  A    between atoms: _143  and  _144
REMARK   64  A    between atoms: _143  and  _146
REMARK   65  A    between atoms: _146  and  _147
REMARK   66  A    between atoms: _150  and  _152
REMARK   67  A    between atoms: _152  and  _153
REMARK   68  A    between atoms: _155  and  _157
REMARK   69  A    between atoms: _157  and  _158
REMARK   70  A    between atoms: _160  and  _162
REMARK   71  A    between atoms: _162  and  _163
REMARK   72  A    between atoms: _162  and  _165
REMARK   73  A    between atoms: _165  and  _166
REMARK   74  A    between atoms: _172  and  _174
REMARK   75  A    between atoms: _174  and  _175
REMARK   76  A    between atoms: _174  and  _177
REMARK   77  A    between atoms: _177  and  _178
REMARK   78  A    between atoms: _181  and  _183
REMARK   79  A    between atoms: _183  and  _184
REMARK   80  A    between atoms: _183  and  _186
REMARK   81  A    between atoms: _189  and  _191
REMARK   82  A    between atoms: _191  and  _192
REMARK   83  A    between atoms: _191  and  _194
REMARK   84  A    between atoms: _194  and  _195
REMARK   85  A    between atoms: _199  and  _200
REMARK   86  A    between atoms: _205  and  _207
REMARK   87  A    between atoms: _207  and  _208
REMARK   88  A    between atoms: _207  and  _210
REMARK   89  A    between atoms: _210  and  _211
REMARK   90  A    between atoms: _215  and  _216
REMARK   91  A    between atoms: _221  and  _223
REMARK   92  A    between atoms: _223  and  _224
REMARK   93  A    between atoms: _223  and  _226
REMARK   94  A    between atoms: _229  and  _231
REMARK   95  A    between atoms: _231  and  _232
REMARK   96  A    between atoms: _231  and  _234
REMARK   97  A    between atoms: _234  and  _235
REMARK   98  A    between atoms: _240  and  _242
REMARK   99  A    between atoms: _242  and  _243
REMARK  100  A    between atoms: _242  and  _245
REMARK  101  A    between atoms: _245  and  _246
REMARK  102  A    between atoms: _249  and  _251
REMARK  103  A    between atoms: _251  and  _252
REMARK  104  A    between atoms: _251  and  _254
REMARK  105  A    between atoms: _254  and  _255
REMARK  106  A    between atoms: _258  and  _260
REMARK  107  A    between atoms: _260  and  _261
REMARK  108  A    between atoms: _263  and  _265
REMARK  109  A    between atoms: _265  and  _266
REMARK  110  A    between atoms: _265  and  _268
REMARK  111  A    between atoms: _268  and  _269
REMARK  112  A    between atoms: _269  and  _270
REMARK  113  A    between atoms: _270  and  _271
REMARK  114  A    between atoms: _280  and  _282
REMARK  115  A    between atoms: _282  and  _283
REMARK  116  A    between atoms: _282  and  _285
REMARK  117  A    between atoms: _285  and  _286
REMARK  118  A    between atoms: _291  and  _293
REMARK  119  A    between atoms: _293  and  _294
REMARK  120  A    between atoms: _293  and  _296
REMARK  121  A    between atoms: _296  and  _297
REMARK  122  A    between atoms: _297  and  _298
REMARK  123  A    between atoms: _298  and  _299
REMARK  124  A    between atoms: _308  and  _310
REMARK  125  A    between atoms: _310  and  _311
REMARK  126  A    between atoms: _310  and  _313
REMARK  127  A    between atoms: _313  and  _314
REMARK  128  A    between atoms: _317  and  _319
REMARK  129  A    between atoms: _319  and  _320
REMARK  130  A    between atoms: _319  and  _322
REMARK  131  A    between atoms: _322  and  _323
REMARK  132  A    between atoms: _326  and  _328
REMARK  133  A    between atoms: _328  and  _329
REMARK  134  A    between atoms: _328  and  _331
REMARK  135  A    between atoms: _331  and  _332
REMARK  136  A    between atoms: _335  and  _337
REMARK  137  A    between atoms: _337  and  _338
REMARK  138  A    between atoms: _337  and  _340
REMARK  139  A    between atoms: _340  and  _341
REMARK  140  A    between atoms: _344  and  _346
REMARK  141  A    between atoms: _346  and  _347
REMARK  142  A    between atoms: _349  and  _351
REMARK  143  A    between atoms: _351  and  _352
REMARK  144  A    between atoms: _355  and  _357
REMARK  145  A    between atoms: _357  and  _358
REMARK  146  A    between atoms: _357  and  _360
REMARK  147  A    between atoms: _360  and  _361
REMARK  148  A    between atoms: _364  and  _366
REMARK  149  A    between atoms: _366  and  _367
REMARK  150  A    between atoms: _366  and  _369
REMARK  151  A    between atoms: _369  and  _370
REMARK  152  A    between atoms: _373  and  _375
REMARK  153  A    between atoms: _375  and  _376
REMARK  154  A    between atoms: _375  and  _378
REMARK  155  A    between atoms: _378  and  _379
REMARK  156  A    between atoms: _382  and  _384
REMARK  157  A    between atoms: _384  and  _385
REMARK  158  A    between atoms: _384  and  _387
REMARK  159  A    between atoms: _390  and  _392
REMARK  160  A    between atoms: _392  and  _393
REMARK  161  A    between atoms: _392  and  _395
REMARK  162  A    between atoms: _395  and  _396
REMARK  163  A    between atoms: _399  and  _401
REMARK  164  A    between atoms: _401  and  _402
REMARK  165  A    between atoms: _401  and  _404
REMARK  166  A    between atoms: _404  and  _405
REMARK  167  A    between atoms: _405  and  _406
REMARK  168  A    between atoms: _406  and  _407
REMARK  169  A    between atoms: _407  and  _408
REMARK  170  A    between atoms: _412  and  _414
REMARK  171  A    between atoms: _414  and  _415
REMARK  172  A    between atoms: _414  and  _417
REMARK  173  A    between atoms: _417  and  _418
REMARK  174  A    between atoms: _418  and  _419
REMARK  175  A    between atoms: _421  and  _423
REMARK  176  A    between atoms: _423  and  _424
REMARK  177  A    between atoms: _423  and  _426
REMARK  178  A    between atoms: _426  and  _427
REMARK  179  A    between atoms: _430  and  _432
REMARK  180  A    between atoms: _432  and  _433
REMARK  181  A    between atoms: _435  and  _437
REMARK  182  A    between atoms: _437  and  _438
REMARK  183  A    between atoms: _440  and  _442
REMARK  184  A    between atoms: _442  and  _443
REMARK  185  A    between atoms: _442  and  _445
REMARK  186  A    between atoms: _445  and  _446
REMARK  187  A    between atoms: _449  and  _451
REMARK  188  A    between atoms: _451  and  _452
REMARK  189  A    between atoms: _454  and  _456
REMARK  190  A    between atoms: _456  and  _457
REMARK  191  A    between atoms: _459  and  _461
REMARK  192  A    between atoms: _461  and  _462
REMARK  193  A    between atoms: _461  and  _464
REMARK  194  A    between atoms: _464  and  _465
REMARK  195  A    between atoms: _468  and  _470
REMARK  196  A    between atoms: _470  and  _471
REMARK  197  A    between atoms: _470  and  _473
REMARK  198  A    between atoms: _476  and  _478
REMARK  199  A    between atoms: _478  and  _479
REMARK  200  A    between atoms: _478  and  _481
REMARK  201  A    between atoms: _481  and  _482
REMARK  202  A    between atoms: _486  and  _487
REMARK  203  A    between atoms: _492  and  _494
REMARK  204  A    between atoms: _494  and  _495
REMARK  205  A    between atoms: _494  and  _497
REMARK  206  A    between atoms: _497  and  _498
REMARK  207  A    between atoms: _502  and  _503
REMARK  208  A    between atoms: _508  and  _510
REMARK  209  A    between atoms: _510  and  _511
REMARK  210  A    between atoms: _510  and  _513
REMARK  211  A    between atoms: _516  and  _518
REMARK  212  A    between atoms: _518  and  _519
REMARK  213  A    between atoms: _518  and  _521
REMARK  214  A    between atoms: _521  and  _522
REMARK  215  A    between atoms: _527  and  _529
REMARK  216  A    between atoms: _529  and  _530
REMARK  217  A    between atoms: _529  and  _532
REMARK  218  A    between atoms: _532  and  _533
REMARK  219  A    between atoms: _536  and  _538
REMARK  220  A    between atoms: _538  and  _539
REMARK  221  A    between atoms: _538  and  _541
REMARK  222  A    between atoms: _541  and  _542
REMARK  223  A    between atoms: _545  and  _547
REMARK  224  A    between atoms: _547  and  _548
REMARK  225  A    between atoms: _550  and  _552
REMARK  226  A    between atoms: _552  and  _553
REMARK  227  A    between atoms: _552  and  _555
REMARK  228  A    between atoms: _555  and  _556
REMARK  229  A    between atoms: _556  and  _557
REMARK  230  A    between atoms: _557  and  _558
REMARK  231  A    between atoms: _567  and  _569
REMARK  232  A    between atoms: _569  and  _570
REMARK  233  A    between atoms: _569  and  _572
REMARK  234  A    between atoms: _572  and  _573
REMARK                            x       y       z     vdW  Elec       q    Type
REMARK                         _______ _______ _______ _____ _____    ______ ____
ROOT
ATOM      1  CA  ILE A   6     -13.054  20.324 -26.459  0.00  0.00    +0.149 C 
ENDROOT
BRANCH   1   2
ATOM      2  C   ILE A   6     -14.438  20.623 -27.051  0.00  0.00    +0.241 C 
ATOM      3  O   ILE A   6     -14.826  21.777 -27.211  0.00  0.00    -0.273 OA
ATOM      4  N   ILE A   7     -15.141  19.538 -27.362  0.00  0.00    -0.297 N 
ATOM      5  H   ILE A   7     -14.658  18.618 -27.317  0.00  0.00    +0.150 HD
BRANCH   4   6
ATOM      6  CA  ILE A   7     -16.535  19.551 -27.759  0.00  0.00    +0.149 C 
BRANCH   6   7
ATOM      7  C   ILE A   7     -17.381  19.341 -26.502  0.00  0.00    +0.241 C 
ATOM      8  O   ILE A   7     -17.310  18.298 -25.855  0.00  0.00    -0.273 OA
ATOM      9  N   GLY A   8     -18.161  20.358 -26.158  0.00  0.00    -0.295 N 
ATOM     10  H   GLY A   8     -18.187  21.208 -26.757  0.00  0.00    +0.150 HD
BRANCH   9  11
ATOM     11  CA  GLY A   8     -18.977  20.303 -24.961  0.00  0.00    +0.176 C 
BRANCH  11  12
ATOM     12  C   GLY A   8     -20.438  20.029 -25.275  0.00  0.00    +0.243 C 
ATOM     13  N   ARG A   9     -21.264  20.080 -24.237  0.00  0.00    -0.297 N 
ATOM     14  H   ARG A   9     -20.939  20.471 -23.330  0.00  0.00    +0.150 HD
ATOM     15  O   GLY A   8     -20.810  19.769 -26.422  0.00  0.00    -0.273 OA
BRANCH  13  16
ATOM     16  CA  ARG A   9     -22.631  19.584 -24.375  0.00  0.00    +0.149 C 
BRANCH  16  17
ATOM     17  C   ARG A   9     -23.418  20.361 -25.410  0.00  0.00    +0.241 C 
ATOM     18  N   ASN A  10     -23.127  21.631 -25.649  0.00  0.00    -0.298 N 
ATOM     19  H   ASN A  10     -22.344  22.094 -25.144  0.00  0.00    +0.150 HD
ATOM     20  O   ARG A   9     -24.308  19.785 -26.022  0.00  0.00    -0.273 OA
BRANCH  18  21
ATOM     21  CA  ASN A  10     -23.914  22.376 -26.627  0.00  0.00    +0.146 C 
BRANCH  21  22
ATOM     22  C   ASN A  10     -23.923  21.711 -27.995  0.00  0.00    +0.227 C 
ATOM     23  O   ASN A  10     -24.990  21.696 -28.621  0.00  0.00    -0.286 OA
ENDBRANCH  21  22
BRANCH  21  24
ATOM     24  CB  ASN A  10     -23.426  23.823 -26.723  0.00  0.00    +0.112 C 
BRANCH  24  25
ATOM     25  CG  ASN A  10     -22.117  23.995 -27.454  0.00  0.00    +0.222 C 
ATOM     26  OD1 ASN A  10     -21.092  23.460 -27.018  0.00  0.00    -0.275 OA
ATOM     27  ND2 ASN A  10     -22.174  24.749 -28.550  0.00  0.00    -0.329 N 
ATOM     28 HD21 ASN A  10     -23.080  25.164 -28.849  0.00  0.00    +0.145 HD
ATOM     29 HD22 ASN A  10     -21.313  24.923 -29.107  0.00  0.00    +0.145 HD
ENDBRANCH  24  25
ENDBRANCH  21  24
ENDBRANCH  18  21
ENDBRANCH  16  17
BRANCH  16  30
ATOM     30  CB  ARG A   9     -23.349  19.583 -23.025  0.00  0.00    +0.033 C 
BRANCH  30  31
ATOM     31  CG  ARG A   9     -22.758  18.624 -22.000  0.00  0.00    +0.045 C 
BRANCH  31  32
ATOM     32  CD  ARG A   9     -23.608  18.544 -20.739  0.00  0.00    +0.174 C 
BRANCH  32  33
ATOM     33  NE  ARG A   9     -23.705  19.812 -20.027  0.00  0.00    -0.265 N 
ATOM     34  HE  ARG A   9     -22.893  20.052 -19.423  0.00  0.00    +0.259 HD
ATOM     35  CZ  ARG A   9     -24.682  20.696 -20.045  0.00  0.00    +0.342 C 
ATOM     36  NH2 ARG A   9     -24.589  21.814 -19.324  0.00  0.00    -0.292 N 
ATOM     37 HH21 ARG A   9     -23.743  21.991 -18.745  0.00  0.00    +0.255 HD
ATOM     38 HH22 ARG A   9     -25.362  22.509 -19.341  0.00  0.00    +0.255 HD
ATOM     39  NH1 ARG A   9     -25.779  20.520 -20.769  0.00  0.00    -0.292 N 
ATOM     40 HH11 ARG A   9     -26.530  21.240 -20.759  0.00  0.00    +0.255 HD
ATOM     41 HH12 ARG A   9     -25.888  19.662 -21.347  0.00  0.00    +0.255 HD
ENDBRANCH  32  33
ENDBRANCH  31  32
ENDBRANCH  30  31
ENDBRANCH  16  30
ENDBRANCH  13  16
ENDBRANCH  11  12
ENDBRANCH   9  11
ENDBRANCH   6   7
BRANCH   6  42
ATOM     42  CB  ILE A   7     -16.889  18.494 -28.812  0.00  0.00    +0.027 C 
ATOM     43  CG2 ILE A   7     -18.313  18.703 -29.318  0.00  0.00    +0.002 C 
BRANCH  42  44
ATOM     44  CG1 ILE A   7     -15.910  18.411 -29.988  0.00  0.00    +0.002 C 
ATOM     45  CD1 ILE A   7     -15.702  19.766 -30.637  0.00  0.00    +0.000 C 
ENDBRANCH  42  44
ENDBRANCH   6  42
ENDBRANCH   4   6
ENDBRANCH   1   2
BRANCH   1  47
ATOM     46  C   ASN A   5     -10.975  20.470 -27.675  0.00  0.00    +0.241 C 
ATOM     47  N   ILE A   6     -12.015  21.099 -27.127  0.00  0.00    -0.297 N 
ATOM     48  H   ILE A   6     -12.085  22.136 -27.176  0.00  0.00    +0.150 HD
ATOM     49  O   ASN A   5     -10.787  19.257 -27.635  0.00  0.00    -0.273 OA
BRANCH  46  50
ATOM     50  CA  ASN A   5      -9.969  21.357 -28.407  0.00  0.00    +0.158 C 
BRANCH  50  53
ATOM     51  C   VAL A   4      -8.360  21.097 -26.639  0.00  0.00    +0.241 C 
ATOM     52  O   VAL A   4      -9.175  21.472 -25.797  0.00  0.00    -0.273 OA
ATOM     53  N   ASN A   5      -8.619  21.072 -27.944  0.00  0.00    -0.297 N 
ATOM     54  H   ASN A   5      -7.865  20.851 -28.626  0.00  0.00    +0.150 HD
BRANCH  51  55
ATOM     55  CA  VAL A   4      -6.967  20.633 -26.211  0.00  0.00    +0.149 C 
BRANCH  55  57
ATOM     56  C   PRO A   3      -5.342  21.482 -24.630  0.00  0.00    +0.241 C 
ATOM     57  N   VAL A   4      -6.625  21.314 -24.967  0.00  0.00    -0.297 N 
ATOM     58  H   VAL A   4      -7.378  21.668 -24.343  0.00  0.00    +0.150 HD
ATOM     59  O   PRO A   3      -4.406  21.055 -25.290  0.00  0.00    -0.273 OA
BRANCH  56  65
ATOM     60  C   THR A   2      -6.371  24.181 -24.036  0.00  0.00    +0.246 C 
ATOM     61  N   PRO A   3      -6.090  23.271 -23.104  0.00  0.00    -0.272 N 
ATOM     62  CD  PRO A   3      -6.681  23.131 -21.770  0.00  0.00    +0.094 C 
ATOM     63  CG  PRO A   3      -5.699  22.219 -21.079  0.00  0.00    +0.024 C 
ATOM     64  CB  PRO A   3      -5.150  21.343 -22.149  0.00  0.00    +0.031 C 
ATOM     65  CA  PRO A   3      -5.058  22.263 -23.361  0.00  0.00    +0.152 C 
ATOM     66  O   THR A   2      -5.729  24.219 -25.093  0.00  0.00    -0.273 OA
BRANCH  60  67
ATOM     67  CA  THR A   2      -7.465  25.199 -23.767  0.00  0.00    +0.176 C 
BRANCH  67  70
ATOM     68  C   PRO A   1      -6.769  27.508 -23.535  0.00  0.00    +0.239 C 
ATOM     69  O   PRO A   1      -6.859  27.460 -22.316  0.00  0.00    -0.274 OA
ATOM     70  N   THR A   2      -7.070  26.491 -24.335  0.00  0.00    -0.295 N 
ATOM     71  H   THR A   2      -7.025  26.612 -25.367  0.00  0.00    +0.150 HD
BRANCH  68  76
ATOM     72  N   PRO A   1      -7.426  29.609 -24.637  0.00  0.00    -0.210 NA
ATOM     73  CD  PRO A   1      -7.569  30.762 -23.720  0.00  0.00    +0.089 C 
ATOM     74  CG  PRO A   1      -6.559  30.463 -22.646  0.00  0.00    +0.021 C 
ATOM     75  CB  PRO A   1      -5.493  29.654 -23.315  0.00  0.00    +0.028 C 
ATOM     76  CA  PRO A   1      -6.302  28.758 -24.264  0.00  0.00    +0.149 C 
ENDBRANCH  68  76
ENDBRANCH  67  70
BRANCH  67  77
ATOM     77  CB  THR A   2      -8.823  24.746 -24.331  0.00  0.00    +0.137 C 
ATOM     78  CG2 THR A   2      -8.827  24.772 -25.857  0.00  0.00    +0.034 C 
BRANCH  77  79
ATOM     79  OG1 THR A   2      -9.063  23.396 -23.938  0.00  0.00    -0.382 OA
ATOM     80  HG1 THR A   2      -8.343  22.817 -24.294  0.00  0.00    +0.210 HD
ENDBRANCH  77  79
ENDBRANCH  67  77
ENDBRANCH  60  67
ENDBRANCH  56  65
ENDBRANCH  55  57
BRANCH  55  81
ATOM     81  CB  VAL A   4      -6.930  19.099 -26.125  0.00  0.00    +0.027 C 
ATOM     82  CG2 VAL A   4      -8.082  18.553 -25.302  0.00  0.00    +0.002 C 
ATOM     83  CG1 VAL A   4      -6.974  18.453 -27.505  0.00  0.00    +0.002 C 
ENDBRANCH  55  81
ENDBRANCH  51  55
ENDBRANCH  50  53
BRANCH  50  84
ATOM     84  CB  ASN A   5     -10.136  21.103 -29.899  0.00  0.00    +0.114 C 
BRANCH  84  85
ATOM     85  CG  ASN A   5      -9.238  21.932 -30.788  0.00  0.00    +0.222 C 
ATOM     86  OD1 ASN A   5      -9.116  23.140 -30.623  0.00  0.00    -0.275 OA
ATOM     87  ND2 ASN A   5      -8.618  21.264 -31.751  0.00  0.00    -0.329 N 
ATOM     88 HD21 ASN A   5      -8.758  20.238 -31.845  0.00  0.00    +0.145 HD
ATOM     89 HD22 ASN A   5      -7.992  21.766 -32.412  0.00  0.00    +0.145 HD
ENDBRANCH  84  85
ENDBRANCH  50  84
ENDBRANCH  46  50
ENDBRANCH   1  47
BRANCH   1  90
ATOM     90  CB  ILE A   6     -13.094  20.571 -24.941  0.00  0.00    +0.027 C 
ATOM     91  CG2 ILE A   6     -11.748  20.227 -24.315  0.00  0.00    +0.002 C 
BRANCH  90  92
ATOM     92  CG1 ILE A   6     -13.535  21.976 -24.549  0.00  0.00    +0.002 C 
ATOM     93  CD1 ILE A   6     -12.654  22.623 -23.503  0.00  0.00    +0.000 C 
ENDBRANCH  90  92
ENDBRANCH   1  90
TORSDOF 33
REMARK  Name = ../refined-set-2016/3bgc/3bgc_pocket.pdb
REMARK  234 active torsions:
REMARK  status: ('A' for Active; 'I' for Inactive)
REMARK    1  A    between atoms: _1  and  _3
REMARK    2  A    between atoms: _3  and  _4
REMARK    3  A    between atoms: _3  and  _6
REMARK    4  A    between atoms: _6  and  _7
REMARK    5  A    between atoms: _7  and  _8
REMARK    6  A    between atoms: _8  and  _9
REMARK    7  A    between atoms: _18  and  _20
REMARK    8  A    between atoms: _20  and  _21
REMARK    9  A    between atoms: _20  and  _23
REMARK   10  A    between atoms: _23  and  _24
REMARK   11  A    between atoms: _27  and  _29
REMARK   12  A    between atoms: _29  and  _30
REMARK   13  A    between atoms: _29  and  _32
REMARK   14  A    between atoms: _32  and  _33
REMARK   15  A    between atoms: _36  and  _38
REMARK   16  A    between atoms: _38  and  _39
REMARK   17  A    between atoms: _38  and  _41
REMARK   18  A    between atoms: _41  and  _42
REMARK   19  A    between atoms: _45  and  _47
REMARK   20  A    between atoms: _47  and  _48
REMARK   21  A    between atoms: _50  and  _52
REMARK   22  A    between atoms: _52  and  _53
REMARK   23  A    between atoms: _56  and  _58
REMARK   24  A    between atoms: _58  and  _59
REMARK   25  A    between atoms: _58  and  _61
REMARK   26  A    between atoms: _61  and  _62
REMARK   27  A    between atoms: _65  and  _67
REMARK   28  A    between atoms: _67  and  _68
REMARK   29  A    between atoms: _67  and  _70
REMARK   30  A    between atoms: _70  and  _71
REMARK   31  A    between atoms: _74  and  _76
REMARK   32  A    between atoms: _76  and  _77
REMARK   33  A    between atoms: _76  and  _79
REMARK   34  A    between atoms: _79  and  _80
REMARK   35  A    between atoms: _83  and  _85
REMARK   36  A    between atoms: _85  and  _86
REMARK   37  A    between atoms: _85  and  _88
REMARK   38  A    between atoms: _91  and  _93
REMARK   39  A    between atoms: _93  and  _94
REMARK   40  A    between atoms: _93  and  _96
REMARK   41  A    between atoms: _96  and  _97
REMARK   42  A    between atoms: _100  and  _102
REMARK   43  A    between atoms: _102  and  _103
REMARK   44  A    between atoms: _102  and  _105
REMARK   45  A    between atoms: _105  and  _106
REMARK   46  A    between atoms: _106  and  _107
REMARK   47  A    between atoms: _107  and  _108
REMARK   48  A    between atoms: _108  and  _109
REMARK   49  A    between atoms: _113  and  _115
REMARK   50  A    between atoms: _115  and  _116
REMARK   51  A    between atoms: _115  and  _118
REMARK   52  A    between atoms: _118  and  _119
REMARK   53  A    between atoms: _119  and  _120
REMARK   54  A    between atoms: _122  and  _124
REMARK   55  A    between atoms: _124  and  _125
REMARK   56  A    between atoms: _124  and  _127
REMARK   57  A    between atoms: _127  and  _128
REMARK   58  A    between atoms: _131  and  _133
REMARK   59  A    between atoms: _133  and  _134
REMARK   60  A    between atoms: _136  and  _138
REMARK   61  A    between atoms: _138  and  _139
REMARK   62  A    between atoms: _141  and  _143
REMARK   63  A    between atoms: _143  and  _144
REMARK   64  A    between atoms: _143  and  _146
REMARK   65  A    between atoms: _146  and  _147
REMARK   66  A    between atoms: _150  and  _152
REMARK   67  A    between atoms: _152  and  _153
REMARK   68  A    between atoms: _155  and  _157
REMARK   69  A    between atoms: _157  and  _158
REMARK   70  A    between atoms: _160  and  _162
REMARK   71  A    between atoms: _162  and  _163
REMARK   72  A    between atoms: _162  and  _165
REMARK   73  A    between atoms: _165  and  _166
REMARK   74  A    between atoms: _172  and  _174
REMARK   75  A    between atoms: _174  and  _175
REMARK   76  A    between atoms: _174  and  _177
REMARK   77  A    between atoms: _177  and  _178
REMARK   78  A    between atoms: _181  and  _183
REMARK   79  A    between atoms: _183  and  _184
REMARK   80  A    between atoms: _183  and  _186
REMARK   81  A    between atoms: _189  and  _191
REMARK   82  A    between atoms: _191  and  _192
REMARK   83  A    between atoms: _191  and  _194
REMARK   84  A    between atoms: _194  and  _195
REMARK   85  A    between atoms: _199  and  _200
REMARK   86  A    between atoms: _205  and  _207
REMARK   87  A    between atoms: _207  and  _208
REMARK   88  A    between atoms: _207  and  _210
REMARK   89  A    between atoms: _210  and  _211
REMARK   90  A    between atoms: _215  and  _216
REMARK   91  A    between atoms: _221  and  _223
REMARK   92  A    between atoms: _223  and  _224
REMARK   93  A    between atoms: _223  and  _226
REMARK   94  A    between atoms: _229  and  _231
REMARK   95  A    between atoms: _231  and  _232
REMARK   96  A    between atoms: _231  and  _234
REMARK   97  A    between atoms: _234  and  _235
REMARK   98  A    between atoms: _240  and  _242
REMARK   99  A    between atoms: _242  and  _243
REMARK  100  A    between atoms: _242  and  _245
REMARK  101  A    between atoms: _245  and  _246
REMARK  102  A    between atoms: _249  and  _251
REMARK  103  A    between atoms: _251  and  _252
REMARK  104  A    between atoms: _251  and  _254
REMARK  105  A    between atoms: _254  and  _255
REMARK  106  A    between atoms: _258  and  _260
REMARK  107  A    between atoms: _260  and  _261
REMARK  108  A    between atoms: _263  and  _265
REMARK  109  A    between atoms: _265  and  _266
REMARK  110  A    between atoms: _265  and  _268
REMARK  111  A    between atoms: _268  and  _269
REMARK  112  A    between atoms: _269  and  _270
REMARK  113  A    between atoms: _270  and  _271
REMARK  114  A    between atoms: _280  and  _282
REMARK  115  A    between atoms: _282  and  _283
REMARK  116  A    between atoms: _282  and  _285
REMARK  117  A    between atoms: _285  and  _286
REMARK  118  A    between atoms: _291  and  _293
REMARK  119  A    between atoms: _293  and  _294
REMARK  120  A    between atoms: _293  and  _296
REMARK  121  A    between atoms: _296  and  _297
REMARK  122  A    between atoms: _297  and  _298
REMARK  123  A    between atoms: _298  and  _299
REMARK  124  A    between atoms: _308  and  _310
REMARK  125  A    between atoms: _310  and  _311
REMARK  126  A    between atoms: _310  and  _313
REMARK  127  A    between atoms: _313  and  _314
REMARK  128  A    between atoms: _317  and  _319
REMARK  129  A    between atoms: _319  and  _320
REMARK  130  A    between atoms: _319  and  _322
REMARK  131  A    between atoms: _322  and  _323
REMARK  132  A    between atoms: _326  and  _328
REMARK  133  A    between atoms: _328  and  _329
REMARK  134  A    between atoms: _328  and  _331
REMARK  135  A    between atoms: _331  and  _332
REMARK  136  A    between atoms: _335  and  _337
REMARK  137  A    between atoms: _337  and  _338
REMARK  138  A    between atoms: _337  and  _340
REMARK  139  A    between atoms: _340  and  _341
REMARK  140  A    between atoms: _344  and  _346
REMARK  141  A    between atoms: _346  and  _347
REMARK  142  A    between atoms: _349  and  _351
REMARK  143  A    between atoms: _351  and  _352
REMARK  144  A    between atoms: _355  and  _357
REMARK  145  A    between atoms: _357  and  _358
REMARK  146  A    between atoms: _357  and  _360
REMARK  147  A    between atoms: _360  and  _361
REMARK  148  A    between atoms: _364  and  _366
REMARK  149  A    between atoms: _366  and  _367
REMARK  150  A    between atoms: _366  and  _369
REMARK  151  A    between atoms: _369  and  _370
REMARK  152  A    between atoms: _373  and  _375
REMARK  153  A    between atoms: _375  and  _376
REMARK  154  A    between atoms: _375  and  _378
REMARK  155  A    between atoms: _378  and  _379
REMARK  156  A    between atoms: _382  and  _384
REMARK  157  A    between atoms: _384  and  _385
REMARK  158  A    between atoms: _384  and  _387
REMARK  159  A    between atoms: _390  and  _392
REMARK  160  A    between atoms: _392  and  _393
REMARK  161  A    between atoms: _392  and  _395
REMARK  162  A    between atoms: _395  and  _396
REMARK  163  A    between atoms: _399  and  _401
REMARK  164  A    between atoms: _401  and  _402
REMARK  165  A    between atoms: _401  and  _404
REMARK  166  A    between atoms: _404  and  _405
REMARK  167  A    between atoms: _405  and  _406
REMARK  168  A    between atoms: _406  and  _407
REMARK  169  A    between atoms: _407  and  _408
REMARK  170  A    between atoms: _412  and  _414
REMARK  171  A    between atoms: _414  and  _415
REMARK  172  A    between atoms: _414  and  _417
REMARK  173  A    between atoms: _417  and  _418
REMARK  174  A    between atoms: _418  and  _419
REMARK  175  A    between atoms: _421  and  _423
REMARK  176  A    between atoms: _423  and  _424
REMARK  177  A    between atoms: _423  and  _426
REMARK  178  A    between atoms: _426  and  _427
REMARK  179  A    between atoms: _430  and  _432
REMARK  180  A    between atoms: _432  and  _433
REMARK  181  A    between atoms: _435  and  _437
REMARK  182  A    between atoms: _437  and  _438
REMARK  183  A    between atoms: _440  and  _442
REMARK  184  A    between atoms: _442  and  _443
REMARK  185  A    between atoms: _442  and  _445
REMARK  186  A    between atoms: _445  and  _446
REMARK  187  A    between atoms: _449  and  _451
REMARK  188  A    between atoms: _451  and  _452
REMARK  189  A    between atoms: _454  and  _456
REMARK  190  A    between atoms: _456  and  _457
REMARK  191  A    between atoms: _459  and  _461
REMARK  192  A    between atoms: _461  and  _462
REMARK  193  A    between atoms: _461  and  _464
REMARK  194  A    between atoms: _464  and  _465
REMARK  195  A    between atoms: _468  and  _470
REMARK  196  A    between atoms: _470  and  _471
REMARK  197  A    between atoms: _470  and  _473
REMARK  198  A    between atoms: _476  and  _478
REMARK  199  A    between atoms: _478  and  _479
REMARK  200  A    between atoms: _478  and  _481
REMARK  201  A    between atoms: _481  and  _482
REMARK  202  A    between atoms: _486  and  _487
REMARK  203  A    between atoms: _492  and  _494
REMARK  204  A    between atoms: _494  and  _495
REMARK  205  A    between atoms: _494  and  _497
REMARK  206  A    between atoms: _497  and  _498
REMARK  207  A    between atoms: _502  and  _503
REMARK  208  A    between atoms: _508  and  _510
REMARK  209  A    between atoms: _510  and  _511
REMARK  210  A    between atoms: _510  and  _513
REMARK  211  A    between atoms: _516  and  _518
REMARK  212  A    between atoms: _518  and  _519
REMARK  213  A    between atoms: _518  and  _521
REMARK  214  A    between atoms: _521  and  _522
REMARK  215  A    between atoms: _527  and  _529
REMARK  216  A    between atoms: _529  and  _530
REMARK  217  A    between atoms: _529  and  _532
REMARK  218  A    between atoms: _532  and  _533
REMARK  219  A    between atoms: _536  and  _538
REMARK  220  A    between atoms: _538  and  _539
REMARK  221  A    between atoms: _538  and  _541
REMARK  222  A    between atoms: _541  and  _542
REMARK  223  A    between atoms: _545  and  _547
REMARK  224  A    between atoms: _547  and  _548
REMARK  225  A    between atoms: _550  and  _552
REMARK  226  A    between atoms: _552  and  _553
REMARK  227  A    between atoms: _552  and  _555
REMARK  228  A    between atoms: _555  and  _556
REMARK  229  A    between atoms: _556  and  _557
REMARK  230  A    between atoms: _557  and  _558
REMARK  231  A    between atoms: _567  and  _569
REMARK  232  A    between atoms: _569  and  _570
REMARK  233  A    between atoms: _569  and  _572
REMARK  234  A    between atoms: _572  and  _573
REMARK                            x       y       z     vdW  Elec       q    Type
REMARK                         _______ _______ _______ _____ _____    ______ ____
ROOT
ATOM      1  O   HOH     1     -10.387  12.114 -21.318  0.00  0.00    +0.000 OA
ENDROOT
TORSDOF 0
REMARK  Name = ../refined-set-2016/3bgc/3bgc_pocket.pdb
REMARK  234 active torsions:
REMARK  status: ('A' for Active; 'I' for Inactive)
REMARK    1  A    between atoms: _1  and  _3
REMARK    2  A    between atoms: _3  and  _4
REMARK    3  A    between atoms: _3  and  _6
REMARK    4  A    between atoms: _6  and  _7
REMARK    5  A    between atoms: _7  and  _8
REMARK    6  A    between atoms: _8  and  _9
REMARK    7  A    between atoms: _18  and  _20
REMARK    8  A    between atoms: _20  and  _21
REMARK    9  A    between atoms: _20  and  _23
REMARK   10  A    between atoms: _23  and  _24
REMARK   11  A    between atoms: _27  and  _29
REMARK   12  A    between atoms: _29  and  _30
REMARK   13  A    between atoms: _29  and  _32
REMARK   14  A    between atoms: _32  and  _33
REMARK   15  A    between atoms: _36  and  _38
REMARK   16  A    between atoms: _38  and  _39
REMARK   17  A    between atoms: _38  and  _41
REMARK   18  A    between atoms: _41  and  _42
REMARK   19  A    between atoms: _45  and  _47
REMARK   20  A    between atoms: _47  and  _48
REMARK   21  A    between atoms: _50  and  _52
REMARK   22  A    between atoms: _52  and  _53
REMARK   23  A    between atoms: _56  and  _58
REMARK   24  A    between atoms: _58  and  _59
REMARK   25  A    between atoms: _58  and  _61
REMARK   26  A    between atoms: _61  and  _62
REMARK   27  A    between atoms: _65  and  _67
REMARK   28  A    between atoms: _67  and  _68
REMARK   29  A    between atoms: _67  and  _70
REMARK   30  A    between atoms: _70  and  _71
REMARK   31  A    between atoms: _74  and  _76
REMARK   32  A    between atoms: _76  and  _77
REMARK   33  A    between atoms: _76  and  _79
REMARK   34  A    between atoms: _79  and  _80
REMARK   35  A    between atoms: _83  and  _85
REMARK   36  A    between atoms: _85  and  _86
REMARK   37  A    between atoms: _85  and  _88
REMARK   38  A    between atoms: _91  and  _93
REMARK   39  A    between atoms: _93  and  _94
REMARK   40  A    between atoms: _93  and  _96
REMARK   41  A    between atoms: _96  and  _97
REMARK   42  A    between atoms: _100  and  _102
REMARK   43  A    between atoms: _102  and  _103
REMARK   44  A    between atoms: _102  and  _105
REMARK   45  A    between atoms: _105  and  _106
REMARK   46  A    between atoms: _106  and  _107
REMARK   47  A    between atoms: _107  and  _108
REMARK   48  A    between atoms: _108  and  _109
REMARK   49  A    between atoms: _113  and  _115
REMARK   50  A    between atoms: _115  and  _116
REMARK   51  A    between atoms: _115  and  _118
REMARK   52  A    between atoms: _118  and  _119
REMARK   53  A    between atoms: _119  and  _120
REMARK   54  A    between atoms: _122  and  _124
REMARK   55  A    between atoms: _124  and  _125
REMARK   56  A    between atoms: _124  and  _127
REMARK   57  A    between atoms: _127  and  _128
REMARK   58  A    between atoms: _131  and  _133
REMARK   59  A    between atoms: _133  and  _134
REMARK   60  A    between atoms: _136  and  _138
REMARK   61  A    between atoms: _138  and  _139
REMARK   62  A    between atoms: _141  and  _143
REMARK   63  A    between atoms: _143  and  _144
REMARK   64  A    between atoms: _143  and  _146
REMARK   65  A    between atoms: _146  and  _147
REMARK   66  A    between atoms: _150  and  _152
REMARK   67  A    between atoms: _152  and  _153
REMARK   68  A    between atoms: _155  and  _157
REMARK   69  A    between atoms: _157  and  _158
REMARK   70  A    between atoms: _160  and  _162
REMARK   71  A    between atoms: _162  and  _163
REMARK   72  A    between atoms: _162  and  _165
REMARK   73  A    between atoms: _165  and  _166
REMARK   74  A    between atoms: _172  and  _174
REMARK   75  A    between atoms: _174  and  _175
REMARK   76  A    between atoms: _174  and  _177
REMARK   77  A    between atoms: _177  and  _178
REMARK   78  A    between atoms: _181  and  _183
REMARK   79  A    between atoms: _183  and  _184
REMARK   80  A    between atoms: _183  and  _186
REMARK   81  A    between atoms: _189  and  _191
REMARK   82  A    between atoms: _191  and  _192
REMARK   83  A    between atoms: _191  and  _194
REMARK   84  A    between atoms: _194  and  _195
REMARK   85  A    between atoms: _199  and  _200
REMARK   86  A    between atoms: _205  and  _207
REMARK   87  A    between atoms: _207  and  _208
REMARK   88  A    between atoms: _207  and  _210
REMARK   89  A    between atoms: _210  and  _211
REMARK   90  A    between atoms: _215  and  _216
REMARK   91  A    between atoms: _221  and  _223
REMARK   92  A    between atoms: _223  and  _224
REMARK   93  A    between atoms: _223  and  _226
REMARK   94  A    between atoms: _229  and  _231
REMARK   95  A    between atoms: _231  and  _232
REMARK   96  A    between atoms: _231  and  _234
REMARK   97  A    between atoms: _234  and  _235
REMARK   98  A    between atoms: _240  and  _242
REMARK   99  A    between atoms: _242  and  _243
REMARK  100  A    between atoms: _242  and  _245
REMARK  101  A    between atoms: _245  and  _246
REMARK  102  A    between atoms: _249  and  _251
REMARK  103  A    between atoms: _251  and  _252
REMARK  104  A    between atoms: _251  and  _254
REMARK  105  A    between atoms: _254  and  _255
REMARK  106  A    between atoms: _258  and  _260
REMARK  107  A    between atoms: _260  and  _261
REMARK  108  A    between atoms: _263  and  _265
REMARK  109  A    between atoms: _265  and  _266
REMARK  110  A    between atoms: _265  and  _268
REMARK  111  A    between atoms: _268  and  _269
REMARK  112  A    between atoms: _269  and  _270
REMARK  113  A    between atoms: _270  and  _271
REMARK  114  A    between atoms: _280  and  _282
REMARK  115  A    between atoms: _282  and  _283
REMARK  116  A    between atoms: _282  and  _285
REMARK  117  A    between atoms: _285  and  _286
REMARK  118  A    between atoms: _291  and  _293
REMARK  119  A    between atoms: _293  and  _294
REMARK  120  A    between atoms: _293  and  _296
REMARK  121  A    between atoms: _296  and  _297
REMARK  122  A    between atoms: _297  and  _298
REMARK  123  A    between atoms: _298  and  _299
REMARK  124  A    between atoms: _308  and  _310
REMARK  125  A    between atoms: _310  and  _311
REMARK  126  A    between atoms: _310  and  _313
REMARK  127  A    between atoms: _313  and  _314
REMARK  128  A    between atoms: _317  and  _319
REMARK  129  A    between atoms: _319  and  _320
REMARK  130  A    between atoms: _319  and  _322
REMARK  131  A    between atoms: _322  and  _323
REMARK  132  A    between atoms: _326  and  _328
REMARK  133  A    between atoms: _328  and  _329
REMARK  134  A    between atoms: _328  and  _331
REMARK  135  A    between atoms: _331  and  _332
REMARK  136  A    between atoms: _335  and  _337
REMARK  137  A    between atoms: _337  and  _338
REMARK  138  A    between atoms: _337  and  _340
REMARK  139  A    between atoms: _340  and  _341
REMARK  140  A    between atoms: _344  and  _346
REMARK  141  A    between atoms: _346  and  _347
REMARK  142  A    between atoms: _349  and  _351
REMARK  143  A    between atoms: _351  and  _352
REMARK  144  A    between atoms: _355  and  _357
REMARK  145  A    between atoms: _357  and  _358
REMARK  146  A    between atoms: _357  and  _360
REMARK  147  A    between atoms: _360  and  _361
REMARK  148  A    between atoms: _364  and  _366
REMARK  149  A    between atoms: _366  and  _367
REMARK  150  A    between atoms: _366  and  _369
REMARK  151  A    between atoms: _369  and  _370
REMARK  152  A    between atoms: _373  and  _375
REMARK  153  A    between atoms: _375  and  _376
REMARK  154  A    between atoms: _375  and  _378
REMARK  155  A    between atoms: _378  and  _379
REMARK  156  A    between atoms: _382  and  _384
REMARK  157  A    between atoms: _384  and  _385
REMARK  158  A    between atoms: _384  and  _387
REMARK  159  A    between atoms: _390  and  _392
REMARK  160  A    between atoms: _392  and  _393
REMARK  161  A    between atoms: _392  and  _395
REMARK  162  A    between atoms: _395  and  _396
REMARK  163  A    between atoms: _399  and  _401
REMARK  164  A    between atoms: _401  and  _402
REMARK  165  A    between atoms: _401  and  _404
REMARK  166  A    between atoms: _404  and  _405
REMARK  167  A    between atoms: _405  and  _406
REMARK  168  A    between atoms: _406  and  _407
REMARK  169  A    between atoms: _407  and  _408
REMARK  170  A    between atoms: _412  and  _414
REMARK  171  A    between atoms: _414  and  _415
REMARK  172  A    between atoms: _414  and  _417
REMARK  173  A    between atoms: _417  and  _418
REMARK  174  A    between atoms: _418  and  _419
REMARK  175  A    between atoms: _421  and  _423
REMARK  176  A    between atoms: _423  and  _424
REMARK  177  A    between atoms: _423  and  _426
REMARK  178  A    between atoms: _426  and  _427
REMARK  179  A    between atoms: _430  and  _432
REMARK  180  A    between atoms: _432  and  _433
REMARK  181  A    between atoms: _435  and  _437
REMARK  182  A    between atoms: _437  and  _438
REMARK  183  A    between atoms: _440  and  _442
REMARK  184  A    between atoms: _442  and  _443
REMARK  185  A    between atoms: _442  and  _445
REMARK  186  A    between atoms: _445  and  _446
REMARK  187  A    between atoms: _449  and  _451
REMARK  188  A    between atoms: _451  and  _452
REMARK  189  A    between atoms: _454  and  _456
REMARK  190  A    between atoms: _456  and  _457
REMARK  191  A    between atoms: _459  and  _461
REMARK  192  A    between atoms: _461  and  _462
REMARK  193  A    between atoms: _461  and  _464
REMARK  194  A    between atoms: _464  and  _465
REMARK  195  A    between atoms: _468  and  _470
REMARK  196  A    between atoms: _470  and  _471
REMARK  197  A    between atoms: _470  and  _473
REMARK  198  A    between atoms: _476  and  _478
REMARK  199  A    between atoms: _478  and  _479
REMARK  200  A    between atoms: _478  and  _481
REMARK  201  A    between atoms: _481  and  _482
REMARK  202  A    between atoms: _486  and  _487
REMARK  203  A    between atoms: _492  and  _494
REMARK  204  A    between atoms: _494  and  _495
REMARK  205  A    between atoms: _494  and  _497
REMARK  206  A    between atoms: _497  and  _498
REMARK  207  A    between atoms: _502  and  _503
REMARK  208  A    between atoms: _508  and  _510
REMARK  209  A    between atoms: _510  and  _511
REMARK  210  A    between atoms: _510  and  _513
REMARK  211  A    between atoms: _516  and  _518
REMARK  212  A    between atoms: _518  and  _519
REMARK  213  A    between atoms: _518  and  _521
REMARK  214  A    between atoms: _521  and  _522
REMARK  215  A    between atoms: _527  and  _529
REMARK  216  A    between atoms: _529  and  _530
REMARK  217  A    between atoms: _529  and  _532
REMARK  218  A    between atoms: _532  and  _533
REMARK  219  A    between atoms: _536  and  _538
REMARK  220  A    between atoms: _538  and  _539
REMARK  221  A    between atoms: _538  and  _541
REMARK  222  A    between atoms: _541  and  _542
REMARK  223  A    between atoms: _545  and  _547
REMARK  224  A    between atoms: _547  and  _548
REMARK  225  A    between atoms: _550  and  _552
REMARK  226  A    between atoms: _552  and  _553
REMARK  227  A    between atoms: _552  and  _555
REMARK  228  A    between atoms: _555  and  _556
REMARK  229  A    between atoms: _556  and  _557
REMARK  230  A    between atoms: _557  and  _558
REMARK  231  A    between atoms: _567  and  _569
REMARK  232  A    between atoms: _569  and  _570
REMARK  233  A    between atoms: _569  and  _572
REMARK  234  A    between atoms: _572  and  _573
REMARK                            x       y       z     vdW  Elec       q    Type
REMARK                         _______ _______ _______ _____ _____    ______ ____
ROOT
ATOM      1  O   HOH     1      -5.373  12.583 -13.502  0.00  0.00    +0.000 OA
ENDROOT
TORSDOF 0
REMARK  Name = ../refined-set-2016/3bgc/3bgc_pocket.pdb
REMARK  234 active torsions:
REMARK  status: ('A' for Active; 'I' for Inactive)
REMARK    1  A    between atoms: _1  and  _3
REMARK    2  A    between atoms: _3  and  _4
REMARK    3  A    between atoms: _3  and  _6
REMARK    4  A    between atoms: _6  and  _7
REMARK    5  A    between atoms: _7  and  _8
REMARK    6  A    between atoms: _8  and  _9
REMARK    7  A    between atoms: _18  and  _20
REMARK    8  A    between atoms: _20  and  _21
REMARK    9  A    between atoms: _20  and  _23
REMARK   10  A    between atoms: _23  and  _24
REMARK   11  A    between atoms: _27  and  _29
REMARK   12  A    between atoms: _29  and  _30
REMARK   13  A    between atoms: _29  and  _32
REMARK   14  A    between atoms: _32  and  _33
REMARK   15  A    between atoms: _36  and  _38
REMARK   16  A    between atoms: _38  and  _39
REMARK   17  A    between atoms: _38  and  _41
REMARK   18  A    between atoms: _41  and  _42
REMARK   19  A    between atoms: _45  and  _47
REMARK   20  A    between atoms: _47  and  _48
REMARK   21  A    between atoms: _50  and  _52
REMARK   22  A    between atoms: _52  and  _53
REMARK   23  A    between atoms: _56  and  _58
REMARK   24  A    between atoms: _58  and  _59
REMARK   25  A    between atoms: _58  and  _61
REMARK   26  A    between atoms: _61  and  _62
REMARK   27  A    between atoms: _65  and  _67
REMARK   28  A    between atoms: _67  and  _68
REMARK   29  A    between atoms: _67  and  _70
REMARK   30  A    between atoms: _70  and  _71
REMARK   31  A    between atoms: _74  and  _76
REMARK   32  A    between atoms: _76  and  _77
REMARK   33  A    between atoms: _76  and  _79
REMARK   34  A    between atoms: _79  and  _80
REMARK   35  A    between atoms: _83  and  _85
REMARK   36  A    between atoms: _85  and  _86
REMARK   37  A    between atoms: _85  and  _88
REMARK   38  A    between atoms: _91  and  _93
REMARK   39  A    between atoms: _93  and  _94
REMARK   40  A    between atoms: _93  and  _96
REMARK   41  A    between atoms: _96  and  _97
REMARK   42  A    between atoms: _100  and  _102
REMARK   43  A    between atoms: _102  and  _103
REMARK   44  A    between atoms: _102  and  _105
REMARK   45  A    between atoms: _105  and  _106
REMARK   46  A    between atoms: _106  and  _107
REMARK   47  A    between atoms: _107  and  _108
REMARK   48  A    between atoms: _108  and  _109
REMARK   49  A    between atoms: _113  and  _115
REMARK   50  A    between atoms: _115  and  _116
REMARK   51  A    between atoms: _115  and  _118
REMARK   52  A    between atoms: _118  and  _119
REMARK   53  A    between atoms: _119  and  _120
REMARK   54  A    between atoms: _122  and  _124
REMARK   55  A    between atoms: _124  and  _125
REMARK   56  A    between atoms: _124  and  _127
REMARK   57  A    between atoms: _127  and  _128
REMARK   58  A    between atoms: _131  and  _133
REMARK   59  A    between atoms: _133  and  _134
REMARK   60  A    between atoms: _136  and  _138
REMARK   61  A    between atoms: _138  and  _139
REMARK   62  A    between atoms: _141  and  _143
REMARK   63  A    between atoms: _143  and  _144
REMARK   64  A    between atoms: _143  and  _146
REMARK   65  A    between atoms: _146  and  _147
REMARK   66  A    between atoms: _150  and  _152
REMARK   67  A    between atoms: _152  and  _153
REMARK   68  A    between atoms: _155  and  _157
REMARK   69  A    between atoms: _157  and  _158
REMARK   70  A    between atoms: _160  and  _162
REMARK   71  A    between atoms: _162  and  _163
REMARK   72  A    between atoms: _162  and  _165
REMARK   73  A    between atoms: _165  and  _166
REMARK   74  A    between atoms: _172  and  _174
REMARK   75  A    between atoms: _174  and  _175
REMARK   76  A    between atoms: _174  and  _177
REMARK   77  A    between atoms: _177  and  _178
REMARK   78  A    between atoms: _181  and  _183
REMARK   79  A    between atoms: _183  and  _184
REMARK   80  A    between atoms: _183  and  _186
REMARK   81  A    between atoms: _189  and  _191
REMARK   82  A    between atoms: _191  and  _192
REMARK   83  A    between atoms: _191  and  _194
REMARK   84  A    between atoms: _194  and  _195
REMARK   85  A    between atoms: _199  and  _200
REMARK   86  A    between atoms: _205  and  _207
REMARK   87  A    between atoms: _207  and  _208
REMARK   88  A    between atoms: _207  and  _210
REMARK   89  A    between atoms: _210  and  _211
REMARK   90  A    between atoms: _215  and  _216
REMARK   91  A    between atoms: _221  and  _223
REMARK   92  A    between atoms: _223  and  _224
REMARK   93  A    between atoms: _223  and  _226
REMARK   94  A    between atoms: _229  and  _231
REMARK   95  A    between atoms: _231  and  _232
REMARK   96  A    between atoms: _231  and  _234
REMARK   97  A    between atoms: _234  and  _235
REMARK   98  A    between atoms: _240  and  _242
REMARK   99  A    between atoms: _242  and  _243
REMARK  100  A    between atoms: _242  and  _245
REMARK  101  A    between atoms: _245  and  _246
REMARK  102  A    between atoms: _249  and  _251
REMARK  103  A    between atoms: _251  and  _252
REMARK  104  A    between atoms: _251  and  _254
REMARK  105  A    between atoms: _254  and  _255
REMARK  106  A    between atoms: _258  and  _260
REMARK  107  A    between atoms: _260  and  _261
REMARK  108  A    between atoms: _263  and  _265
REMARK  109  A    between atoms: _265  and  _266
REMARK  110  A    between atoms: _265  and  _268
REMARK  111  A    between atoms: _268  and  _269
REMARK  112  A    between atoms: _269  and  _270
REMARK  113  A    between atoms: _270  and  _271
REMARK  114  A    between atoms: _280  and  _282
REMARK  115  A    between atoms: _282  and  _283
REMARK  116  A    between atoms: _282  and  _285
REMARK  117  A    between atoms: _285  and  _286
REMARK  118  A    between atoms: _291  and  _293
REMARK  119  A    between atoms: _293  and  _294
REMARK  120  A    between atoms: _293  and  _296
REMARK  121  A    between atoms: _296  and  _297
REMARK  122  A    between atoms: _297  and  _298
REMARK  123  A    between atoms: _298  and  _299
REMARK  124  A    between atoms: _308  and  _310
REMARK  125  A    between atoms: _310  and  _311
REMARK  126  A    between atoms: _310  and  _313
REMARK  127  A    between atoms: _313  and  _314
REMARK  128  A    between atoms: _317  and  _319
REMARK  129  A    between atoms: _319  and  _320
REMARK  130  A    between atoms: _319  and  _322
REMARK  131  A    between atoms: _322  and  _323
REMARK  132  A    between atoms: _326  and  _328
REMARK  133  A    between atoms: _328  and  _329
REMARK  134  A    between atoms: _328  and  _331
REMARK  135  A    between atoms: _331  and  _332
REMARK  136  A    between atoms: _335  and  _337
REMARK  137  A    between atoms: _337  and  _338
REMARK  138  A    between atoms: _337  and  _340
REMARK  139  A    between atoms: _340  and  _341
REMARK  140  A    between atoms: _344  and  _346
REMARK  141  A    between atoms: _346  and  _347
REMARK  142  A    between atoms: _349  and  _351
REMARK  143  A    between atoms: _351  and  _352
REMARK  144  A    between atoms: _355  and  _357
REMARK  145  A    between atoms: _357  and  _358
REMARK  146  A    between atoms: _357  and  _360
REMARK  147  A    between atoms: _360  and  _361
REMARK  148  A    between atoms: _364  and  _366
REMARK  149  A    between atoms: _366  and  _367
REMARK  150  A    between atoms: _366  and  _369
REMARK  151  A    between atoms: _369  and  _370
REMARK  152  A    between atoms: _373  and  _375
REMARK  153  A    between atoms: _375  and  _376
REMARK  154  A    between atoms: _375  and  _378
REMARK  155  A    between atoms: _378  and  _379
REMARK  156  A    between atoms: _382  and  _384
REMARK  157  A    between atoms: _384  and  _385
REMARK  158  A    between atoms: _384  and  _387
REMARK  159  A    between atoms: _390  and  _392
REMARK  160  A    between atoms: _392  and  _393
REMARK  161  A    between atoms: _392  and  _395
REMARK  162  A    between atoms: _395  and  _396
REMARK  163  A    between atoms: _399  and  _401
REMARK  164  A    between atoms: _401  and  _402
REMARK  165  A    between atoms: _401  and  _404
REMARK  166  A    between atoms: _404  and  _405
REMARK  167  A    between atoms: _405  and  _406
REMARK  168  A    between atoms: _406  and  _407
REMARK  169  A    between atoms: _407  and  _408
REMARK  170  A    between atoms: _412  and  _414
REMARK  171  A    between atoms: _414  and  _415
REMARK  172  A    between atoms: _414  and  _417
REMARK  173  A    between atoms: _417  and  _418
REMARK  174  A    between atoms: _418  and  _419
REMARK  175  A    between atoms: _421  and  _423
REMARK  176  A    between atoms: _423  and  _424
REMARK  177  A    between atoms: _423  and  _426
REMARK  178  A    between atoms: _426  and  _427
REMARK  179  A    between atoms: _430  and  _432
REMARK  180  A    between atoms: _432  and  _433
REMARK  181  A    between atoms: _435  and  _437
REMARK  182  A    between atoms: _437  and  _438
REMARK  183  A    between atoms: _440  and  _442
REMARK  184  A    between atoms: _442  and  _443
REMARK  185  A    between atoms: _442  and  _445
REMARK  186  A    between atoms: _445  and  _446
REMARK  187  A    between atoms: _449  and  _451
REMARK  188  A    between atoms: _451  and  _452
REMARK  189  A    between atoms: _454  and  _456
REMARK  190  A    between atoms: _456  and  _457
REMARK  191  A    between atoms: _459  and  _461
REMARK  192  A    between atoms: _461  and  _462
REMARK  193  A    between atoms: _461  and  _464
REMARK  194  A    between atoms: _464  and  _465
REMARK  195  A    between atoms: _468  and  _470
REMARK  196  A    between atoms: _470  and  _471
REMARK  197  A    between atoms: _470  and  _473
REMARK  198  A    between atoms: _476  and  _478
REMARK  199  A    between atoms: _478  and  _479
REMARK  200  A    between atoms: _478  and  _481
REMARK  201  A    between atoms: _481  and  _482
REMARK  202  A    between atoms: _486  and  _487
REMARK  203  A    between atoms: _492  and  _494
REMARK  204  A    between atoms: _494  and  _495
REMARK  205  A    between atoms: _494  and  _497
REMARK  206  A    between atoms: _497  and  _498
REMARK  207  A    between atoms: _502  and  _503
REMARK  208  A    between atoms: _508  and  _510
REMARK  209  A    between atoms: _510  and  _511
REMARK  210  A    between atoms: _510  and  _513
REMARK  211  A    between atoms: _516  and  _518
REMARK  212  A    between atoms: _518  and  _519
REMARK  213  A    between atoms: _518  and  _521
REMARK  214  A    between atoms: _521  and  _522
REMARK  215  A    between atoms: _527  and  _529
REMARK  216  A    between atoms: _529  and  _530
REMARK  217  A    between atoms: _529  and  _532
REMARK  218  A    between atoms: _532  and  _533
REMARK  219  A    between atoms: _536  and  _538
REMARK  220  A    between atoms: _538  and  _539
REMARK  221  A    between atoms: _538  and  _541
REMARK  222  A    between atoms: _541  and  _542
REMARK  223  A    between atoms: _545  and  _547
REMARK  224  A    between atoms: _547  and  _548
REMARK  225  A    between atoms: _550  and  _552
REMARK  226  A    between atoms: _552  and  _553
REMARK  227  A    between atoms: _552  and  _555
REMARK  228  A    between atoms: _555  and  _556
REMARK  229  A    between atoms: _556  and  _557
REMARK  230  A    between atoms: _557  and  _558
REMARK  231  A    between atoms: _567  and  _569
REMARK  232  A    between atoms: _569  and  _570
REMARK  233  A    between atoms: _569  and  _572
REMARK  234  A    between atoms: _572  and  _573
REMARK                            x       y       z     vdW  Elec       q    Type
REMARK                         _______ _______ _______ _____ _____    ______ ____
ROOT
ATOM      1  O   HOH     1      -7.817  14.840 -17.912  0.00  0.00    +0.000 OA
ENDROOT
TORSDOF 0
REMARK  Name = ../refined-set-2016/3bgc/3bgc_pocket.pdb
REMARK  234 active torsions:
REMARK  status: ('A' for Active; 'I' for Inactive)
REMARK    1  A    between atoms: _1  and  _3
REMARK    2  A    between atoms: _3  and  _4
REMARK    3  A    between atoms: _3  and  _6
REMARK    4  A    between atoms: _6  and  _7
REMARK    5  A    between atoms: _7  and  _8
REMARK    6  A    between atoms: _8  and  _9
REMARK    7  A    between atoms: _18  and  _20
REMARK    8  A    between atoms: _20  and  _21
REMARK    9  A    between atoms: _20  and  _23
REMARK   10  A    between atoms: _23  and  _24
REMARK   11  A    between atoms: _27  and  _29
REMARK   12  A    between atoms: _29  and  _30
REMARK   13  A    between atoms: _29  and  _32
REMARK   14  A    between atoms: _32  and  _33
REMARK   15  A    between atoms: _36  and  _38
REMARK   16  A    between atoms: _38  and  _39
REMARK   17  A    between atoms: _38  and  _41
REMARK   18  A    between atoms: _41  and  _42
REMARK   19  A    between atoms: _45  and  _47
REMARK   20  A    between atoms: _47  and  _48
REMARK   21  A    between atoms: _50  and  _52
REMARK   22  A    between atoms: _52  and  _53
REMARK   23  A    between atoms: _56  and  _58
REMARK   24  A    between atoms: _58  and  _59
REMARK   25  A    between atoms: _58  and  _61
REMARK   26  A    between atoms: _61  and  _62
REMARK   27  A    between atoms: _65  and  _67
REMARK   28  A    between atoms: _67  and  _68
REMARK   29  A    between atoms: _67  and  _70
REMARK   30  A    between atoms: _70  and  _71
REMARK   31  A    between atoms: _74  and  _76
REMARK   32  A    between atoms: _76  and  _77
REMARK   33  A    between atoms: _76  and  _79
REMARK   34  A    between atoms: _79  and  _80
REMARK   35  A    between atoms: _83  and  _85
REMARK   36  A    between atoms: _85  and  _86
REMARK   37  A    between atoms: _85  and  _88
REMARK   38  A    between atoms: _91  and  _93
REMARK   39  A    between atoms: _93  and  _94
REMARK   40  A    between atoms: _93  and  _96
REMARK   41  A    between atoms: _96  and  _97
REMARK   42  A    between atoms: _100  and  _102
REMARK   43  A    between atoms: _102  and  _103
REMARK   44  A    between atoms: _102  and  _105
REMARK   45  A    between atoms: _105  and  _106
REMARK   46  A    between atoms: _106  and  _107
REMARK   47  A    between atoms: _107  and  _108
REMARK   48  A    between atoms: _108  and  _109
REMARK   49  A    between atoms: _113  and  _115
REMARK   50  A    between atoms: _115  and  _116
REMARK   51  A    between atoms: _115  and  _118
REMARK   52  A    between atoms: _118  and  _119
REMARK   53  A    between atoms: _119  and  _120
REMARK   54  A    between atoms: _122  and  _124
REMARK   55  A    between atoms: _124  and  _125
REMARK   56  A    between atoms: _124  and  _127
REMARK   57  A    between atoms: _127  and  _128
REMARK   58  A    between atoms: _131  and  _133
REMARK   59  A    between atoms: _133  and  _134
REMARK   60  A    between atoms: _136  and  _138
REMARK   61  A    between atoms: _138  and  _139
REMARK   62  A    between atoms: _141  and  _143
REMARK   63  A    between atoms: _143  and  _144
REMARK   64  A    between atoms: _143  and  _146
REMARK   65  A    between atoms: _146  and  _147
REMARK   66  A    between atoms: _150  and  _152
REMARK   67  A    between atoms: _152  and  _153
REMARK   68  A    between atoms: _155  and  _157
REMARK   69  A    between atoms: _157  and  _158
REMARK   70  A    between atoms: _160  and  _162
REMARK   71  A    between atoms: _162  and  _163
REMARK   72  A    between atoms: _162  and  _165
REMARK   73  A    between atoms: _165  and  _166
REMARK   74  A    between atoms: _172  and  _174
REMARK   75  A    between atoms: _174  and  _175
REMARK   76  A    between atoms: _174  and  _177
REMARK   77  A    between atoms: _177  and  _178
REMARK   78  A    between atoms: _181  and  _183
REMARK   79  A    between atoms: _183  and  _184
REMARK   80  A    between atoms: _183  and  _186
REMARK   81  A    between atoms: _189  and  _191
REMARK   82  A    between atoms: _191  and  _192
REMARK   83  A    between atoms: _191  and  _194
REMARK   84  A    between atoms: _194  and  _195
REMARK   85  A    between atoms: _199  and  _200
REMARK   86  A    between atoms: _205  and  _207
REMARK   87  A    between atoms: _207  and  _208
REMARK   88  A    between atoms: _207  and  _210
REMARK   89  A    between atoms: _210  and  _211
REMARK   90  A    between atoms: _215  and  _216
REMARK   91  A    between atoms: _221  and  _223
REMARK   92  A    between atoms: _223  and  _224
REMARK   93  A    between atoms: _223  and  _226
REMARK   94  A    between atoms: _229  and  _231
REMARK   95  A    between atoms: _231  and  _232
REMARK   96  A    between atoms: _231  and  _234
REMARK   97  A    between atoms: _234  and  _235
REMARK   98  A    between atoms: _240  and  _242
REMARK   99  A    between atoms: _242  and  _243
REMARK  100  A    between atoms: _242  and  _245
REMARK  101  A    between atoms: _245  and  _246
REMARK  102  A    between atoms: _249  and  _251
REMARK  103  A    between atoms: _251  and  _252
REMARK  104  A    between atoms: _251  and  _254
REMARK  105  A    between atoms: _254  and  _255
REMARK  106  A    between atoms: _258  and  _260
REMARK  107  A    between atoms: _260  and  _261
REMARK  108  A    between atoms: _263  and  _265
REMARK  109  A    between atoms: _265  and  _266
REMARK  110  A    between atoms: _265  and  _268
REMARK  111  A    between atoms: _268  and  _269
REMARK  112  A    between atoms: _269  and  _270
REMARK  113  A    between atoms: _270  and  _271
REMARK  114  A    between atoms: _280  and  _282
REMARK  115  A    between atoms: _282  and  _283
REMARK  116  A    between atoms: _282  and  _285
REMARK  117  A    between atoms: _285  and  _286
REMARK  118  A    between atoms: _291  and  _293
REMARK  119  A    between atoms: _293  and  _294
REMARK  120  A    between atoms: _293  and  _296
REMARK  121  A    between atoms: _296  and  _297
REMARK  122  A    between atoms: _297  and  _298
REMARK  123  A    between atoms: _298  and  _299
REMARK  124  A    between atoms: _308  and  _310
REMARK  125  A    between atoms: _310  and  _311
REMARK  126  A    between atoms: _310  and  _313
REMARK  127  A    between atoms: _313  and  _314
REMARK  128  A    between atoms: _317  and  _319
REMARK  129  A    between atoms: _319  and  _320
REMARK  130  A    between atoms: _319  and  _322
REMARK  131  A    between atoms: _322  and  _323
REMARK  132  A    between atoms: _326  and  _328
REMARK  133  A    between atoms: _328  and  _329
REMARK  134  A    between atoms: _328  and  _331
REMARK  135  A    between atoms: _331  and  _332
REMARK  136  A    between atoms: _335  and  _337
REMARK  137  A    between atoms: _337  and  _338
REMARK  138  A    between atoms: _337  and  _340
REMARK  139  A    between atoms: _340  and  _341
REMARK  140  A    between atoms: _344  and  _346
REMARK  141  A    between atoms: _346  and  _347
REMARK  142  A    between atoms: _349  and  _351
REMARK  143  A    between atoms: _351  and  _352
REMARK  144  A    between atoms: _355  and  _357
REMARK  145  A    between atoms: _357  and  _358
REMARK  146  A    between atoms: _357  and  _360
REMARK  147  A    between atoms: _360  and  _361
REMARK  148  A    between atoms: _364  and  _366
REMARK  149  A    between atoms: _366  and  _367
REMARK  150  A    between atoms: _366  and  _369
REMARK  151  A    between atoms: _369  and  _370
REMARK  152  A    between atoms: _373  and  _375
REMARK  153  A    between atoms: _375  and  _376
REMARK  154  A    between atoms: _375  and  _378
REMARK  155  A    between atoms: _378  and  _379
REMARK  156  A    between atoms: _382  and  _384
REMARK  157  A    between atoms: _384  and  _385
REMARK  158  A    between atoms: _384  and  _387
REMARK  159  A    between atoms: _390  and  _392
REMARK  160  A    between atoms: _392  and  _393
REMARK  161  A    between atoms: _392  and  _395
REMARK  162  A    between atoms: _395  and  _396
REMARK  163  A    between atoms: _399  and  _401
REMARK  164  A    between atoms: _401  and  _402
REMARK  165  A    between atoms: _401  and  _404
REMARK  166  A    between atoms: _404  and  _405
REMARK  167  A    between atoms: _405  and  _406
REMARK  168  A    between atoms: _406  and  _407
REMARK  169  A    between atoms: _407  and  _408
REMARK  170  A    between atoms: _412  and  _414
REMARK  171  A    between atoms: _414  and  _415
REMARK  172  A    between atoms: _414  and  _417
REMARK  173  A    between atoms: _417  and  _418
REMARK  174  A    between atoms: _418  and  _419
REMARK  175  A    between atoms: _421  and  _423
REMARK  176  A    between atoms: _423  and  _424
REMARK  177  A    between atoms: _423  and  _426
REMARK  178  A    between atoms: _426  and  _427
REMARK  179  A    between atoms: _430  and  _432
REMARK  180  A    between atoms: _432  and  _433
REMARK  181  A    between atoms: _435  and  _437
REMARK  182  A    between atoms: _437  and  _438
REMARK  183  A    between atoms: _440  and  _442
REMARK  184  A    between atoms: _442  and  _443
REMARK  185  A    between atoms: _442  and  _445
REMARK  186  A    between atoms: _445  and  _446
REMARK  187  A    between atoms: _449  and  _451
REMARK  188  A    between atoms: _451  and  _452
REMARK  189  A    between atoms: _454  and  _456
REMARK  190  A    between atoms: _456  and  _457
REMARK  191  A    between atoms: _459  and  _461
REMARK  192  A    between atoms: _461  and  _462
REMARK  193  A    between atoms: _461  and  _464
REMARK  194  A    between atoms: _464  and  _465
REMARK  195  A    between atoms: _468  and  _470
REMARK  196  A    between atoms: _470  and  _471
REMARK  197  A    between atoms: _470  and  _473
REMARK  198  A    between atoms: _476  and  _478
REMARK  199  A    between atoms: _478  and  _479
REMARK  200  A    between atoms: _478  and  _481
REMARK  201  A    between atoms: _481  and  _482
REMARK  202  A    between atoms: _486  and  _487
REMARK  203  A    between atoms: _492  and  _494
REMARK  204  A    between atoms: _494  and  _495
REMARK  205  A    between atoms: _494  and  _497
REMARK  206  A    between atoms: _497  and  _498
REMARK  207  A    between atoms: _502  and  _503
REMARK  208  A    between atoms: _508  and  _510
REMARK  209  A    between atoms: _510  and  _511
REMARK  210  A    between atoms: _510  and  _513
REMARK  211  A    between atoms: _516  and  _518
REMARK  212  A    between atoms: _518  and  _519
REMARK  213  A    between atoms: _518  and  _521
REMARK  214  A    between atoms: _521  and  _522
REMARK  215  A    between atoms: _527  and  _529
REMARK  216  A    between atoms: _529  and  _530
REMARK  217  A    between atoms: _529  and  _532
REMARK  218  A    between atoms: _532  and  _533
REMARK  219  A    between atoms: _536  and  _538
REMARK  220  A    between atoms: _538  and  _539
REMARK  221  A    between atoms: _538  and  _541
REMARK  222  A    between atoms: _541  and  _542
REMARK  223  A    between atoms: _545  and  _547
REMARK  224  A    between atoms: _547  and  _548
REMARK  225  A    between atoms: _550  and  _552
REMARK  226  A    between atoms: _552  and  _553
REMARK  227  A    between atoms: _552  and  _555
REMARK  228  A    between atoms: _555  and  _556
REMARK  229  A    between atoms: _556  and  _557
REMARK  230  A    between atoms: _557  and  _558
REMARK  231  A    between atoms: _567  and  _569
REMARK  232  A    between atoms: _569  and  _570
REMARK  233  A    between atoms: _569  and  _572
REMARK  234  A    between atoms: _572  and  _573
REMARK                            x       y       z     vdW  Elec       q    Type
REMARK                         _______ _______ _______ _____ _____    ______ ____
ROOT
ATOM      1  O   HOH     1      -8.205   7.187 -17.260  0.00  0.00    +0.000 OA
ENDROOT
TORSDOF 0
REMARK  Name = ../refined-set-2016/3bgc/3bgc_pocket.pdb
REMARK  234 active torsions:
REMARK  status: ('A' for Active; 'I' for Inactive)
REMARK    1  A    between atoms: _1  and  _3
REMARK    2  A    between atoms: _3  and  _4
REMARK    3  A    between atoms: _3  and  _6
REMARK    4  A    between atoms: _6  and  _7
REMARK    5  A    between atoms: _7  and  _8
REMARK    6  A    between atoms: _8  and  _9
REMARK    7  A    between atoms: _18  and  _20
REMARK    8  A    between atoms: _20  and  _21
REMARK    9  A    between atoms: _20  and  _23
REMARK   10  A    between atoms: _23  and  _24
REMARK   11  A    between atoms: _27  and  _29
REMARK   12  A    between atoms: _29  and  _30
REMARK   13  A    between atoms: _29  and  _32
REMARK   14  A    between atoms: _32  and  _33
REMARK   15  A    between atoms: _36  and  _38
REMARK   16  A    between atoms: _38  and  _39
REMARK   17  A    between atoms: _38  and  _41
REMARK   18  A    between atoms: _41  and  _42
REMARK   19  A    between atoms: _45  and  _47
REMARK   20  A    between atoms: _47  and  _48
REMARK   21  A    between atoms: _50  and  _52
REMARK   22  A    between atoms: _52  and  _53
REMARK   23  A    between atoms: _56  and  _58
REMARK   24  A    between atoms: _58  and  _59
REMARK   25  A    between atoms: _58  and  _61
REMARK   26  A    between atoms: _61  and  _62
REMARK   27  A    between atoms: _65  and  _67
REMARK   28  A    between atoms: _67  and  _68
REMARK   29  A    between atoms: _67  and  _70
REMARK   30  A    between atoms: _70  and  _71
REMARK   31  A    between atoms: _74  and  _76
REMARK   32  A    between atoms: _76  and  _77
REMARK   33  A    between atoms: _76  and  _79
REMARK   34  A    between atoms: _79  and  _80
REMARK   35  A    between atoms: _83  and  _85
REMARK   36  A    between atoms: _85  and  _86
REMARK   37  A    between atoms: _85  and  _88
REMARK   38  A    between atoms: _91  and  _93
REMARK   39  A    between atoms: _93  and  _94
REMARK   40  A    between atoms: _93  and  _96
REMARK   41  A    between atoms: _96  and  _97
REMARK   42  A    between atoms: _100  and  _102
REMARK   43  A    between atoms: _102  and  _103
REMARK   44  A    between atoms: _102  and  _105
REMARK   45  A    between atoms: _105  and  _106
REMARK   46  A    between atoms: _106  and  _107
REMARK   47  A    between atoms: _107  and  _108
REMARK   48  A    between atoms: _108  and  _109
REMARK   49  A    between atoms: _113  and  _115
REMARK   50  A    between atoms: _115  and  _116
REMARK   51  A    between atoms: _115  and  _118
REMARK   52  A    between atoms: _118  and  _119
REMARK   53  A    between atoms: _119  and  _120
REMARK   54  A    between atoms: _122  and  _124
REMARK   55  A    between atoms: _124  and  _125
REMARK   56  A    between atoms: _124  and  _127
REMARK   57  A    between atoms: _127  and  _128
REMARK   58  A    between atoms: _131  and  _133
REMARK   59  A    between atoms: _133  and  _134
REMARK   60  A    between atoms: _136  and  _138
REMARK   61  A    between atoms: _138  and  _139
REMARK   62  A    between atoms: _141  and  _143
REMARK   63  A    between atoms: _143  and  _144
REMARK   64  A    between atoms: _143  and  _146
REMARK   65  A    between atoms: _146  and  _147
REMARK   66  A    between atoms: _150  and  _152
REMARK   67  A    between atoms: _152  and  _153
REMARK   68  A    between atoms: _155  and  _157
REMARK   69  A    between atoms: _157  and  _158
REMARK   70  A    between atoms: _160  and  _162
REMARK   71  A    between atoms: _162  and  _163
REMARK   72  A    between atoms: _162  and  _165
REMARK   73  A    between atoms: _165  and  _166
REMARK   74  A    between atoms: _172  and  _174
REMARK   75  A    between atoms: _174  and  _175
REMARK   76  A    between atoms: _174  and  _177
REMARK   77  A    between atoms: _177  and  _178
REMARK   78  A    between atoms: _181  and  _183
REMARK   79  A    between atoms: _183  and  _184
REMARK   80  A    between atoms: _183  and  _186
REMARK   81  A    between atoms: _189  and  _191
REMARK   82  A    between atoms: _191  and  _192
REMARK   83  A    between atoms: _191  and  _194
REMARK   84  A    between atoms: _194  and  _195
REMARK   85  A    between atoms: _199  and  _200
REMARK   86  A    between atoms: _205  and  _207
REMARK   87  A    between atoms: _207  and  _208
REMARK   88  A    between atoms: _207  and  _210
REMARK   89  A    between atoms: _210  and  _211
REMARK   90  A    between atoms: _215  and  _216
REMARK   91  A    between atoms: _221  and  _223
REMARK   92  A    between atoms: _223  and  _224
REMARK   93  A    between atoms: _223  and  _226
REMARK   94  A    between atoms: _229  and  _231
REMARK   95  A    between atoms: _231  and  _232
REMARK   96  A    between atoms: _231  and  _234
REMARK   97  A    between atoms: _234  and  _235
REMARK   98  A    between atoms: _240  and  _242
REMARK   99  A    between atoms: _242  and  _243
REMARK  100  A    between atoms: _242  and  _245
REMARK  101  A    between atoms: _245  and  _246
REMARK  102  A    between atoms: _249  and  _251
REMARK  103  A    between atoms: _251  and  _252
REMARK  104  A    between atoms: _251  and  _254
REMARK  105  A    between atoms: _254  and  _255
REMARK  106  A    between atoms: _258  and  _260
REMARK  107  A    between atoms: _260  and  _261
REMARK  108  A    between atoms: _263  and  _265
REMARK  109  A    between atoms: _265  and  _266
REMARK  110  A    between atoms: _265  and  _268
REMARK  111  A    between atoms: _268  and  _269
REMARK  112  A    between atoms: _269  and  _270
REMARK  113  A    between atoms: _270  and  _271
REMARK  114  A    between atoms: _280  and  _282
REMARK  115  A    between atoms: _282  and  _283
REMARK  116  A    between atoms: _282  and  _285
REMARK  117  A    between atoms: _285  and  _286
REMARK  118  A    between atoms: _291  and  _293
REMARK  119  A    between atoms: _293  and  _294
REMARK  120  A    between atoms: _293  and  _296
REMARK  121  A    between atoms: _296  and  _297
REMARK  122  A    between atoms: _297  and  _298
REMARK  123  A    between atoms: _298  and  _299
REMARK  124  A    between atoms: _308  and  _310
REMARK  125  A    between atoms: _310  and  _311
REMARK  126  A    between atoms: _310  and  _313
REMARK  127  A    between atoms: _313  and  _314
REMARK  128  A    between atoms: _317  and  _319
REMARK  129  A    between atoms: _319  and  _320
REMARK  130  A    between atoms: _319  and  _322
REMARK  131  A    between atoms: _322  and  _323
REMARK  132  A    between atoms: _326  and  _328
REMARK  133  A    between atoms: _328  and  _329
REMARK  134  A    between atoms: _328  and  _331
REMARK  135  A    between atoms: _331  and  _332
REMARK  136  A    between atoms: _335  and  _337
REMARK  137  A    between atoms: _337  and  _338
REMARK  138  A    between atoms: _337  and  _340
REMARK  139  A    between atoms: _340  and  _341
REMARK  140  A    between atoms: _344  and  _346
REMARK  141  A    between atoms: _346  and  _347
REMARK  142  A    between atoms: _349  and  _351
REMARK  143  A    between atoms: _351  and  _352
REMARK  144  A    between atoms: _355  and  _357
REMARK  145  A    between atoms: _357  and  _358
REMARK  146  A    between atoms: _357  and  _360
REMARK  147  A    between atoms: _360  and  _361
REMARK  148  A    between atoms: _364  and  _366
REMARK  149  A    between atoms: _366  and  _367
REMARK  150  A    between atoms: _366  and  _369
REMARK  151  A    between atoms: _369  and  _370
REMARK  152  A    between atoms: _373  and  _375
REMARK  153  A    between atoms: _375  and  _376
REMARK  154  A    between atoms: _375  and  _378
REMARK  155  A    between atoms: _378  and  _379
REMARK  156  A    between atoms: _382  and  _384
REMARK  157  A    between atoms: _384  and  _385
REMARK  158  A    between atoms: _384  and  _387
REMARK  159  A    between atoms: _390  and  _392
REMARK  160  A    between atoms: _392  and  _393
REMARK  161  A    between atoms: _392  and  _395
REMARK  162  A    between atoms: _395  and  _396
REMARK  163  A    between atoms: _399  and  _401
REMARK  164  A    between atoms: _401  and  _402
REMARK  165  A    between atoms: _401  and  _404
REMARK  166  A    between atoms: _404  and  _405
REMARK  167  A    between atoms: _405  and  _406
REMARK  168  A    between atoms: _406  and  _407
REMARK  169  A    between atoms: _407  and  _408
REMARK  170  A    between atoms: _412  and  _414
REMARK  171  A    between atoms: _414  and  _415
REMARK  172  A    between atoms: _414  and  _417
REMARK  173  A    between atoms: _417  and  _418
REMARK  174  A    between atoms: _418  and  _419
REMARK  175  A    between atoms: _421  and  _423
REMARK  176  A    between atoms: _423  and  _424
REMARK  177  A    between atoms: _423  and  _426
REMARK  178  A    between atoms: _426  and  _427
REMARK  179  A    between atoms: _430  and  _432
REMARK  180  A    between atoms: _432  and  _433
REMARK  181  A    between atoms: _435  and  _437
REMARK  182  A    between atoms: _437  and  _438
REMARK  183  A    between atoms: _440  and  _442
REMARK  184  A    between atoms: _442  and  _443
REMARK  185  A    between atoms: _442  and  _445
REMARK  186  A    between atoms: _445  and  _446
REMARK  187  A    between atoms: _449  and  _451
REMARK  188  A    between atoms: _451  and  _452
REMARK  189  A    between atoms: _454  and  _456
REMARK  190  A    between atoms: _456  and  _457
REMARK  191  A    between atoms: _459  and  _461
REMARK  192  A    between atoms: _461  and  _462
REMARK  193  A    between atoms: _461  and  _464
REMARK  194  A    between atoms: _464  and  _465
REMARK  195  A    between atoms: _468  and  _470
REMARK  196  A    between atoms: _470  and  _471
REMARK  197  A    between atoms: _470  and  _473
REMARK  198  A    between atoms: _476  and  _478
REMARK  199  A    between atoms: _478  and  _479
REMARK  200  A    between atoms: _478  and  _481
REMARK  201  A    between atoms: _481  and  _482
REMARK  202  A    between atoms: _486  and  _487
REMARK  203  A    between atoms: _492  and  _494
REMARK  204  A    between atoms: _494  and  _495
REMARK  205  A    between atoms: _494  and  _497
REMARK  206  A    between atoms: _497  and  _498
REMARK  207  A    between atoms: _502  and  _503
REMARK  208  A    between atoms: _508  and  _510
REMARK  209  A    between atoms: _510  and  _511
REMARK  210  A    between atoms: _510  and  _513
REMARK  211  A    between atoms: _516  and  _518
REMARK  212  A    between atoms: _518  and  _519
REMARK  213  A    between atoms: _518  and  _521
REMARK  214  A    between atoms: _521  and  _522
REMARK  215  A    between atoms: _527  and  _529
REMARK  216  A    between atoms: _529  and  _530
REMARK  217  A    between atoms: _529  and  _532
REMARK  218  A    between atoms: _532  and  _533
REMARK  219  A    between atoms: _536  and  _538
REMARK  220  A    between atoms: _538  and  _539
REMARK  221  A    between atoms: _538  and  _541
REMARK  222  A    between atoms: _541  and  _542
REMARK  223  A    between atoms: _545  and  _547
REMARK  224  A    between atoms: _547  and  _548
REMARK  225  A    between atoms: _550  and  _552
REMARK  226  A    between atoms: _552  and  _553
REMARK  227  A    between atoms: _552  and  _555
REMARK  228  A    between atoms: _555  and  _556
REMARK  229  A    between atoms: _556  and  _557
REMARK  230  A    between atoms: _557  and  _558
REMARK  231  A    between atoms: _567  and  _569
REMARK  232  A    between atoms: _569  and  _570
REMARK  233  A    between atoms: _569  and  _572
REMARK  234  A    between atoms: _572  and  _573
REMARK                            x       y       z     vdW  Elec       q    Type
REMARK                         _______ _______ _______ _____ _____    ______ ____
ROOT
ATOM      1  O   HOH     1      -4.163  17.636 -15.595  0.00  0.00    +0.000 OA
ENDROOT
TORSDOF 0
REMARK  Name = ../refined-set-2016/3bgc/3bgc_pocket.pdb
REMARK  234 active torsions:
REMARK  status: ('A' for Active; 'I' for Inactive)
REMARK    1  A    between atoms: _1  and  _3
REMARK    2  A    between atoms: _3  and  _4
REMARK    3  A    between atoms: _3  and  _6
REMARK    4  A    between atoms: _6  and  _7
REMARK    5  A    between atoms: _7  and  _8
REMARK    6  A    between atoms: _8  and  _9
REMARK    7  A    between atoms: _18  and  _20
REMARK    8  A    between atoms: _20  and  _21
REMARK    9  A    between atoms: _20  and  _23
REMARK   10  A    between atoms: _23  and  _24
REMARK   11  A    between atoms: _27  and  _29
REMARK   12  A    between atoms: _29  and  _30
REMARK   13  A    between atoms: _29  and  _32
REMARK   14  A    between atoms: _32  and  _33
REMARK   15  A    between atoms: _36  and  _38
REMARK   16  A    between atoms: _38  and  _39
REMARK   17  A    between atoms: _38  and  _41
REMARK   18  A    between atoms: _41  and  _42
REMARK   19  A    between atoms: _45  and  _47
REMARK   20  A    between atoms: _47  and  _48
REMARK   21  A    between atoms: _50  and  _52
REMARK   22  A    between atoms: _52  and  _53
REMARK   23  A    between atoms: _56  and  _58
REMARK   24  A    between atoms: _58  and  _59
REMARK   25  A    between atoms: _58  and  _61
REMARK   26  A    between atoms: _61  and  _62
REMARK   27  A    between atoms: _65  and  _67
REMARK   28  A    between atoms: _67  and  _68
REMARK   29  A    between atoms: _67  and  _70
REMARK   30  A    between atoms: _70  and  _71
REMARK   31  A    between atoms: _74  and  _76
REMARK   32  A    between atoms: _76  and  _77
REMARK   33  A    between atoms: _76  and  _79
REMARK   34  A    between atoms: _79  and  _80
REMARK   35  A    between atoms: _83  and  _85
REMARK   36  A    between atoms: _85  and  _86
REMARK   37  A    between atoms: _85  and  _88
REMARK   38  A    between atoms: _91  and  _93
REMARK   39  A    between atoms: _93  and  _94
REMARK   40  A    between atoms: _93  and  _96
REMARK   41  A    between atoms: _96  and  _97
REMARK   42  A    between atoms: _100  and  _102
REMARK   43  A    between atoms: _102  and  _103
REMARK   44  A    between atoms: _102  and  _105
REMARK   45  A    between atoms: _105  and  _106
REMARK   46  A    between atoms: _106  and  _107
REMARK   47  A    between atoms: _107  and  _108
REMARK   48  A    between atoms: _108  and  _109
REMARK   49  A    between atoms: _113  and  _115
REMARK   50  A    between atoms: _115  and  _116
REMARK   51  A    between atoms: _115  and  _118
REMARK   52  A    between atoms: _118  and  _119
REMARK   53  A    between atoms: _119  and  _120
REMARK   54  A    between atoms: _122  and  _124
REMARK   55  A    between atoms: _124  and  _125
REMARK   56  A    between atoms: _124  and  _127
REMARK   57  A    between atoms: _127  and  _128
REMARK   58  A    between atoms: _131  and  _133
REMARK   59  A    between atoms: _133  and  _134
REMARK   60  A    between atoms: _136  and  _138
REMARK   61  A    between atoms: _138  and  _139
REMARK   62  A    between atoms: _141  and  _143
REMARK   63  A    between atoms: _143  and  _144
REMARK   64  A    between atoms: _143  and  _146
REMARK   65  A    between atoms: _146  and  _147
REMARK   66  A    between atoms: _150  and  _152
REMARK   67  A    between atoms: _152  and  _153
REMARK   68  A    between atoms: _155  and  _157
REMARK   69  A    between atoms: _157  and  _158
REMARK   70  A    between atoms: _160  and  _162
REMARK   71  A    between atoms: _162  and  _163
REMARK   72  A    between atoms: _162  and  _165
REMARK   73  A    between atoms: _165  and  _166
REMARK   74  A    between atoms: _172  and  _174
REMARK   75  A    between atoms: _174  and  _175
REMARK   76  A    between atoms: _174  and  _177
REMARK   77  A    between atoms: _177  and  _178
REMARK   78  A    between atoms: _181  and  _183
REMARK   79  A    between atoms: _183  and  _184
REMARK   80  A    between atoms: _183  and  _186
REMARK   81  A    between atoms: _189  and  _191
REMARK   82  A    between atoms: _191  and  _192
REMARK   83  A    between atoms: _191  and  _194
REMARK   84  A    between atoms: _194  and  _195
REMARK   85  A    between atoms: _199  and  _200
REMARK   86  A    between atoms: _205  and  _207
REMARK   87  A    between atoms: _207  and  _208
REMARK   88  A    between atoms: _207  and  _210
REMARK   89  A    between atoms: _210  and  _211
REMARK   90  A    between atoms: _215  and  _216
REMARK   91  A    between atoms: _221  and  _223
REMARK   92  A    between atoms: _223  and  _224
REMARK   93  A    between atoms: _223  and  _226
REMARK   94  A    between atoms: _229  and  _231
REMARK   95  A    between atoms: _231  and  _232
REMARK   96  A    between atoms: _231  and  _234
REMARK   97  A    between atoms: _234  and  _235
REMARK   98  A    between atoms: _240  and  _242
REMARK   99  A    between atoms: _242  and  _243
REMARK  100  A    between atoms: _242  and  _245
REMARK  101  A    between atoms: _245  and  _246
REMARK  102  A    between atoms: _249  and  _251
REMARK  103  A    between atoms: _251  and  _252
REMARK  104  A    between atoms: _251  and  _254
REMARK  105  A    between atoms: _254  and  _255
REMARK  106  A    between atoms: _258  and  _260
REMARK  107  A    between atoms: _260  and  _261
REMARK  108  A    between atoms: _263  and  _265
REMARK  109  A    between atoms: _265  and  _266
REMARK  110  A    between atoms: _265  and  _268
REMARK  111  A    between atoms: _268  and  _269
REMARK  112  A    between atoms: _269  and  _270
REMARK  113  A    between atoms: _270  and  _271
REMARK  114  A    between atoms: _280  and  _282
REMARK  115  A    between atoms: _282  and  _283
REMARK  116  A    between atoms: _282  and  _285
REMARK  117  A    between atoms: _285  and  _286
REMARK  118  A    between atoms: _291  and  _293
REMARK  119  A    between atoms: _293  and  _294
REMARK  120  A    between atoms: _293  and  _296
REMARK  121  A    between atoms: _296  and  _297
REMARK  122  A    between atoms: _297  and  _298
REMARK  123  A    between atoms: _298  and  _299
REMARK  124  A    between atoms: _308  and  _310
REMARK  125  A    between atoms: _310  and  _311
REMARK  126  A    between atoms: _310  and  _313
REMARK  127  A    between atoms: _313  and  _314
REMARK  128  A    between atoms: _317  and  _319
REMARK  129  A    between atoms: _319  and  _320
REMARK  130  A    between atoms: _319  and  _322
REMARK  131  A    between atoms: _322  and  _323
REMARK  132  A    between atoms: _326  and  _328
REMARK  133  A    between atoms: _328  and  _329
REMARK  134  A    between atoms: _328  and  _331
REMARK  135  A    between atoms: _331  and  _332
REMARK  136  A    between atoms: _335  and  _337
REMARK  137  A    between atoms: _337  and  _338
REMARK  138  A    between atoms: _337  and  _340
REMARK  139  A    between atoms: _340  and  _341
REMARK  140  A    between atoms: _344  and  _346
REMARK  141  A    between atoms: _346  and  _347
REMARK  142  A    between atoms: _349  and  _351
REMARK  143  A    between atoms: _351  and  _352
REMARK  144  A    between atoms: _355  and  _357
REMARK  145  A    between atoms: _357  and  _358
REMARK  146  A    between atoms: _357  and  _360
REMARK  147  A    between atoms: _360  and  _361
REMARK  148  A    between atoms: _364  and  _366
REMARK  149  A    between atoms: _366  and  _367
REMARK  150  A    between atoms: _366  and  _369
REMARK  151  A    between atoms: _369  and  _370
REMARK  152  A    between atoms: _373  and  _375
REMARK  153  A    between atoms: _375  and  _376
REMARK  154  A    between atoms: _375  and  _378
REMARK  155  A    between atoms: _378  and  _379
REMARK  156  A    between atoms: _382  and  _384
REMARK  157  A    between atoms: _384  and  _385
REMARK  158  A    between atoms: _384  and  _387
REMARK  159  A    between atoms: _390  and  _392
REMARK  160  A    between atoms: _392  and  _393
REMARK  161  A    between atoms: _392  and  _395
REMARK  162  A    between atoms: _395  and  _396
REMARK  163  A    between atoms: _399  and  _401
REMARK  164  A    between atoms: _401  and  _402
REMARK  165  A    between atoms: _401  and  _404
REMARK  166  A    between atoms: _404  and  _405
REMARK  167  A    between atoms: _405  and  _406
REMARK  168  A    between atoms: _406  and  _407
REMARK  169  A    between atoms: _407  and  _408
REMARK  170  A    between atoms: _412  and  _414
REMARK  171  A    between atoms: _414  and  _415
REMARK  172  A    between atoms: _414  and  _417
REMARK  173  A    between atoms: _417  and  _418
REMARK  174  A    between atoms: _418  and  _419
REMARK  175  A    between atoms: _421  and  _423
REMARK  176  A    between atoms: _423  and  _424
REMARK  177  A    between atoms: _423  and  _426
REMARK  178  A    between atoms: _426  and  _427
REMARK  179  A    between atoms: _430  and  _432
REMARK  180  A    between atoms: _432  and  _433
REMARK  181  A    between atoms: _435  and  _437
REMARK  182  A    between atoms: _437  and  _438
REMARK  183  A    between atoms: _440  and  _442
REMARK  184  A    between atoms: _442  and  _443
REMARK  185  A    between atoms: _442  and  _445
REMARK  186  A    between atoms: _445  and  _446
REMARK  187  A    between atoms: _449  and  _451
REMARK  188  A    between atoms: _451  and  _452
REMARK  189  A    between atoms: _454  and  _456
REMARK  190  A    between atoms: _456  and  _457
REMARK  191  A    between atoms: _459  and  _461
REMARK  192  A    between atoms: _461  and  _462
REMARK  193  A    between atoms: _461  and  _464
REMARK  194  A    between atoms: _464  and  _465
REMARK  195  A    between atoms: _468  and  _470
REMARK  196  A    between atoms: _470  and  _471
REMARK  197  A    between atoms: _470  and  _473
REMARK  198  A    between atoms: _476  and  _478
REMARK  199  A    between atoms: _478  and  _479
REMARK  200  A    between atoms: _478  and  _481
REMARK  201  A    between atoms: _481  and  _482
REMARK  202  A    between atoms: _486  and  _487
REMARK  203  A    between atoms: _492  and  _494
REMARK  204  A    between atoms: _494  and  _495
REMARK  205  A    between atoms: _494  and  _497
REMARK  206  A    between atoms: _497  and  _498
REMARK  207  A    between atoms: _502  and  _503
REMARK  208  A    between atoms: _508  and  _510
REMARK  209  A    between atoms: _510  and  _511
REMARK  210  A    between atoms: _510  and  _513
REMARK  211  A    between atoms: _516  and  _518
REMARK  212  A    between atoms: _518  and  _519
REMARK  213  A    between atoms: _518  and  _521
REMARK  214  A    between atoms: _521  and  _522
REMARK  215  A    between atoms: _527  and  _529
REMARK  216  A    between atoms: _529  and  _530
REMARK  217  A    between atoms: _529  and  _532
REMARK  218  A    between atoms: _532  and  _533
REMARK  219  A    between atoms: _536  and  _538
REMARK  220  A    between atoms: _538  and  _539
REMARK  221  A    between atoms: _538  and  _541
REMARK  222  A    between atoms: _541  and  _542
REMARK  223  A    between atoms: _545  and  _547
REMARK  224  A    between atoms: _547  and  _548
REMARK  225  A    between atoms: _550  and  _552
REMARK  226  A    between atoms: _552  and  _553
REMARK  227  A    between atoms: _552  and  _555
REMARK  228  A    between atoms: _555  and  _556
REMARK  229  A    between atoms: _556  and  _557
REMARK  230  A    between atoms: _557  and  _558
REMARK  231  A    between atoms: _567  and  _569
REMARK  232  A    between atoms: _569  and  _570
REMARK  233  A    between atoms: _569  and  _572
REMARK  234  A    between atoms: _572  and  _573
REMARK                            x       y       z     vdW  Elec       q    Type
REMARK                         _______ _______ _______ _____ _____    ______ ____
ROOT
ATOM      1  O   HOH     1     -10.072  22.734 -16.032  0.00  0.00    +0.000 OA
ENDROOT
TORSDOF 0
REMARK  Name = ../refined-set-2016/3bgc/3bgc_pocket.pdb
REMARK  234 active torsions:
REMARK  status: ('A' for Active; 'I' for Inactive)
REMARK    1  A    between atoms: _1  and  _3
REMARK    2  A    between atoms: _3  and  _4
REMARK    3  A    between atoms: _3  and  _6
REMARK    4  A    between atoms: _6  and  _7
REMARK    5  A    between atoms: _7  and  _8
REMARK    6  A    between atoms: _8  and  _9
REMARK    7  A    between atoms: _18  and  _20
REMARK    8  A    between atoms: _20  and  _21
REMARK    9  A    between atoms: _20  and  _23
REMARK   10  A    between atoms: _23  and  _24
REMARK   11  A    between atoms: _27  and  _29
REMARK   12  A    between atoms: _29  and  _30
REMARK   13  A    between atoms: _29  and  _32
REMARK   14  A    between atoms: _32  and  _33
REMARK   15  A    between atoms: _36  and  _38
REMARK   16  A    between atoms: _38  and  _39
REMARK   17  A    between atoms: _38  and  _41
REMARK   18  A    between atoms: _41  and  _42
REMARK   19  A    between atoms: _45  and  _47
REMARK   20  A    between atoms: _47  and  _48
REMARK   21  A    between atoms: _50  and  _52
REMARK   22  A    between atoms: _52  and  _53
REMARK   23  A    between atoms: _56  and  _58
REMARK   24  A    between atoms: _58  and  _59
REMARK   25  A    between atoms: _58  and  _61
REMARK   26  A    between atoms: _61  and  _62
REMARK   27  A    between atoms: _65  and  _67
REMARK   28  A    between atoms: _67  and  _68
REMARK   29  A    between atoms: _67  and  _70
REMARK   30  A    between atoms: _70  and  _71
REMARK   31  A    between atoms: _74  and  _76
REMARK   32  A    between atoms: _76  and  _77
REMARK   33  A    between atoms: _76  and  _79
REMARK   34  A    between atoms: _79  and  _80
REMARK   35  A    between atoms: _83  and  _85
REMARK   36  A    between atoms: _85  and  _86
REMARK   37  A    between atoms: _85  and  _88
REMARK   38  A    between atoms: _91  and  _93
REMARK   39  A    between atoms: _93  and  _94
REMARK   40  A    between atoms: _93  and  _96
REMARK   41  A    between atoms: _96  and  _97
REMARK   42  A    between atoms: _100  and  _102
REMARK   43  A    between atoms: _102  and  _103
REMARK   44  A    between atoms: _102  and  _105
REMARK   45  A    between atoms: _105  and  _106
REMARK   46  A    between atoms: _106  and  _107
REMARK   47  A    between atoms: _107  and  _108
REMARK   48  A    between atoms: _108  and  _109
REMARK   49  A    between atoms: _113  and  _115
REMARK   50  A    between atoms: _115  and  _116
REMARK   51  A    between atoms: _115  and  _118
REMARK   52  A    between atoms: _118  and  _119
REMARK   53  A    between atoms: _119  and  _120
REMARK   54  A    between atoms: _122  and  _124
REMARK   55  A    between atoms: _124  and  _125
REMARK   56  A    between atoms: _124  and  _127
REMARK   57  A    between atoms: _127  and  _128
REMARK   58  A    between atoms: _131  and  _133
REMARK   59  A    between atoms: _133  and  _134
REMARK   60  A    between atoms: _136  and  _138
REMARK   61  A    between atoms: _138  and  _139
REMARK   62  A    between atoms: _141  and  _143
REMARK   63  A    between atoms: _143  and  _144
REMARK   64  A    between atoms: _143  and  _146
REMARK   65  A    between atoms: _146  and  _147
REMARK   66  A    between atoms: _150  and  _152
REMARK   67  A    between atoms: _152  and  _153
REMARK   68  A    between atoms: _155  and  _157
REMARK   69  A    between atoms: _157  and  _158
REMARK   70  A    between atoms: _160  and  _162
REMARK   71  A    between atoms: _162  and  _163
REMARK   72  A    between atoms: _162  and  _165
REMARK   73  A    between atoms: _165  and  _166
REMARK   74  A    between atoms: _172  and  _174
REMARK   75  A    between atoms: _174  and  _175
REMARK   76  A    between atoms: _174  and  _177
REMARK   77  A    between atoms: _177  and  _178
REMARK   78  A    between atoms: _181  and  _183
REMARK   79  A    between atoms: _183  and  _184
REMARK   80  A    between atoms: _183  and  _186
REMARK   81  A    between atoms: _189  and  _191
REMARK   82  A    between atoms: _191  and  _192
REMARK   83  A    between atoms: _191  and  _194
REMARK   84  A    between atoms: _194  and  _195
REMARK   85  A    between atoms: _199  and  _200
REMARK   86  A    between atoms: _205  and  _207
REMARK   87  A    between atoms: _207  and  _208
REMARK   88  A    between atoms: _207  and  _210
REMARK   89  A    between atoms: _210  and  _211
REMARK   90  A    between atoms: _215  and  _216
REMARK   91  A    between atoms: _221  and  _223
REMARK   92  A    between atoms: _223  and  _224
REMARK   93  A    between atoms: _223  and  _226
REMARK   94  A    between atoms: _229  and  _231
REMARK   95  A    between atoms: _231  and  _232
REMARK   96  A    between atoms: _231  and  _234
REMARK   97  A    between atoms: _234  and  _235
REMARK   98  A    between atoms: _240  and  _242
REMARK   99  A    between atoms: _242  and  _243
REMARK  100  A    between atoms: _242  and  _245
REMARK  101  A    between atoms: _245  and  _246
REMARK  102  A    between atoms: _249  and  _251
REMARK  103  A    between atoms: _251  and  _252
REMARK  104  A    between atoms: _251  and  _254
REMARK  105  A    between atoms: _254  and  _255
REMARK  106  A    between atoms: _258  and  _260
REMARK  107  A    between atoms: _260  and  _261
REMARK  108  A    between atoms: _263  and  _265
REMARK  109  A    between atoms: _265  and  _266
REMARK  110  A    between atoms: _265  and  _268
REMARK  111  A    between atoms: _268  and  _269
REMARK  112  A    between atoms: _269  and  _270
REMARK  113  A    between atoms: _270  and  _271
REMARK  114  A    between atoms: _280  and  _282
REMARK  115  A    between atoms: _282  and  _283
REMARK  116  A    between atoms: _282  and  _285
REMARK  117  A    between atoms: _285  and  _286
REMARK  118  A    between atoms: _291  and  _293
REMARK  119  A    between atoms: _293  and  _294
REMARK  120  A    between atoms: _293  and  _296
REMARK  121  A    between atoms: _296  and  _297
REMARK  122  A    between atoms: _297  and  _298
REMARK  123  A    between atoms: _298  and  _299
REMARK  124  A    between atoms: _308  and  _310
REMARK  125  A    between atoms: _310  and  _311
REMARK  126  A    between atoms: _310  and  _313
REMARK  127  A    between atoms: _313  and  _314
REMARK  128  A    between atoms: _317  and  _319
REMARK  129  A    between atoms: _319  and  _320
REMARK  130  A    between atoms: _319  and  _322
REMARK  131  A    between atoms: _322  and  _323
REMARK  132  A    between atoms: _326  and  _328
REMARK  133  A    between atoms: _328  and  _329
REMARK  134  A    between atoms: _328  and  _331
REMARK  135  A    between atoms: _331  and  _332
REMARK  136  A    between atoms: _335  and  _337
REMARK  137  A    between atoms: _337  and  _338
REMARK  138  A    between atoms: _337  and  _340
REMARK  139  A    between atoms: _340  and  _341
REMARK  140  A    between atoms: _344  and  _346
REMARK  141  A    between atoms: _346  and  _347
REMARK  142  A    between atoms: _349  and  _351
REMARK  143  A    between atoms: _351  and  _352
REMARK  144  A    between atoms: _355  and  _357
REMARK  145  A    between atoms: _357  and  _358
REMARK  146  A    between atoms: _357  and  _360
REMARK  147  A    between atoms: _360  and  _361
REMARK  148  A    between atoms: _364  and  _366
REMARK  149  A    between atoms: _366  and  _367
REMARK  150  A    between atoms: _366  and  _369
REMARK  151  A    between atoms: _369  and  _370
REMARK  152  A    between atoms: _373  and  _375
REMARK  153  A    between atoms: _375  and  _376
REMARK  154  A    between atoms: _375  and  _378
REMARK  155  A    between atoms: _378  and  _379
REMARK  156  A    between atoms: _382  and  _384
REMARK  157  A    between atoms: _384  and  _385
REMARK  158  A    between atoms: _384  and  _387
REMARK  159  A    between atoms: _390  and  _392
REMARK  160  A    between atoms: _392  and  _393
REMARK  161  A    between atoms: _392  and  _395
REMARK  162  A    between atoms: _395  and  _396
REMARK  163  A    between atoms: _399  and  _401
REMARK  164  A    between atoms: _401  and  _402
REMARK  165  A    between atoms: _401  and  _404
REMARK  166  A    between atoms: _404  and  _405
REMARK  167  A    between atoms: _405  and  _406
REMARK  168  A    between atoms: _406  and  _407
REMARK  169  A    between atoms: _407  and  _408
REMARK  170  A    between atoms: _412  and  _414
REMARK  171  A    between atoms: _414  and  _415
REMARK  172  A    between atoms: _414  and  _417
REMARK  173  A    between atoms: _417  and  _418
REMARK  174  A    between atoms: _418  and  _419
REMARK  175  A    between atoms: _421  and  _423
REMARK  176  A    between atoms: _423  and  _424
REMARK  177  A    between atoms: _423  and  _426
REMARK  178  A    between atoms: _426  and  _427
REMARK  179  A    between atoms: _430  and  _432
REMARK  180  A    between atoms: _432  and  _433
REMARK  181  A    between atoms: _435  and  _437
REMARK  182  A    between atoms: _437  and  _438
REMARK  183  A    between atoms: _440  and  _442
REMARK  184  A    between atoms: _442  and  _443
REMARK  185  A    between atoms: _442  and  _445
REMARK  186  A    between atoms: _445  and  _446
REMARK  187  A    between atoms: _449  and  _451
REMARK  188  A    between atoms: _451  and  _452
REMARK  189  A    between atoms: _454  and  _456
REMARK  190  A    between atoms: _456  and  _457
REMARK  191  A    between atoms: _459  and  _461
REMARK  192  A    between atoms: _461  and  _462
REMARK  193  A    between atoms: _461  and  _464
REMARK  194  A    between atoms: _464  and  _465
REMARK  195  A    between atoms: _468  and  _470
REMARK  196  A    between atoms: _470  and  _471
REMARK  197  A    between atoms: _470  and  _473
REMARK  198  A    between atoms: _476  and  _478
REMARK  199  A    between atoms: _478  and  _479
REMARK  200  A    between atoms: _478  and  _481
REMARK  201  A    between atoms: _481  and  _482
REMARK  202  A    between atoms: _486  and  _487
REMARK  203  A    between atoms: _492  and  _494
REMARK  204  A    between atoms: _494  and  _495
REMARK  205  A    between atoms: _494  and  _497
REMARK  206  A    between atoms: _497  and  _498
REMARK  207  A    between atoms: _502  and  _503
REMARK  208  A    between atoms: _508  and  _510
REMARK  209  A    between atoms: _510  and  _511
REMARK  210  A    between atoms: _510  and  _513
REMARK  211  A    between atoms: _516  and  _518
REMARK  212  A    between atoms: _518  and  _519
REMARK  213  A    between atoms: _518  and  _521
REMARK  214  A    between atoms: _521  and  _522
REMARK  215  A    between atoms: _527  and  _529
REMARK  216  A    between atoms: _529  and  _530
REMARK  217  A    between atoms: _529  and  _532
REMARK  218  A    between atoms: _532  and  _533
REMARK  219  A    between atoms: _536  and  _538
REMARK  220  A    between atoms: _538  and  _539
REMARK  221  A    between atoms: _538  and  _541
REMARK  222  A    between atoms: _541  and  _542
REMARK  223  A    between atoms: _545  and  _547
REMARK  224  A    between atoms: _547  and  _548
REMARK  225  A    between atoms: _550  and  _552
REMARK  226  A    between atoms: _552  and  _553
REMARK  227  A    between atoms: _552  and  _555
REMARK  228  A    between atoms: _555  and  _556
REMARK  229  A    between atoms: _556  and  _557
REMARK  230  A    between atoms: _557  and  _558
REMARK  231  A    between atoms: _567  and  _569
REMARK  232  A    between atoms: _569  and  _570
REMARK  233  A    between atoms: _569  and  _572
REMARK  234  A    between atoms: _572  and  _573
REMARK                            x       y       z     vdW  Elec       q    Type
REMARK                         _______ _______ _______ _____ _____    ______ ____
ROOT
ATOM      1  O   HOH     1     -19.617  19.128  -6.931  0.00  0.00    +0.000 OA
ENDROOT
TORSDOF 0
REMARK  Name = ../refined-set-2016/3bgc/3bgc_pocket.pdb
REMARK  234 active torsions:
REMARK  status: ('A' for Active; 'I' for Inactive)
REMARK    1  A    between atoms: _1  and  _3
REMARK    2  A    between atoms: _3  and  _4
REMARK    3  A    between atoms: _3  and  _6
REMARK    4  A    between atoms: _6  and  _7
REMARK    5  A    between atoms: _7  and  _8
REMARK    6  A    between atoms: _8  and  _9
REMARK    7  A    between atoms: _18  and  _20
REMARK    8  A    between atoms: _20  and  _21
REMARK    9  A    between atoms: _20  and  _23
REMARK   10  A    between atoms: _23  and  _24
REMARK   11  A    between atoms: _27  and  _29
REMARK   12  A    between atoms: _29  and  _30
REMARK   13  A    between atoms: _29  and  _32
REMARK   14  A    between atoms: _32  and  _33
REMARK   15  A    between atoms: _36  and  _38
REMARK   16  A    between atoms: _38  and  _39
REMARK   17  A    between atoms: _38  and  _41
REMARK   18  A    between atoms: _41  and  _42
REMARK   19  A    between atoms: _45  and  _47
REMARK   20  A    between atoms: _47  and  _48
REMARK   21  A    between atoms: _50  and  _52
REMARK   22  A    between atoms: _52  and  _53
REMARK   23  A    between atoms: _56  and  _58
REMARK   24  A    between atoms: _58  and  _59
REMARK   25  A    between atoms: _58  and  _61
REMARK   26  A    between atoms: _61  and  _62
REMARK   27  A    between atoms: _65  and  _67
REMARK   28  A    between atoms: _67  and  _68
REMARK   29  A    between atoms: _67  and  _70
REMARK   30  A    between atoms: _70  and  _71
REMARK   31  A    between atoms: _74  and  _76
REMARK   32  A    between atoms: _76  and  _77
REMARK   33  A    between atoms: _76  and  _79
REMARK   34  A    between atoms: _79  and  _80
REMARK   35  A    between atoms: _83  and  _85
REMARK   36  A    between atoms: _85  and  _86
REMARK   37  A    between atoms: _85  and  _88
REMARK   38  A    between atoms: _91  and  _93
REMARK   39  A    between atoms: _93  and  _94
REMARK   40  A    between atoms: _93  and  _96
REMARK   41  A    between atoms: _96  and  _97
REMARK   42  A    between atoms: _100  and  _102
REMARK   43  A    between atoms: _102  and  _103
REMARK   44  A    between atoms: _102  and  _105
REMARK   45  A    between atoms: _105  and  _106
REMARK   46  A    between atoms: _106  and  _107
REMARK   47  A    between atoms: _107  and  _108
REMARK   48  A    between atoms: _108  and  _109
REMARK   49  A    between atoms: _113  and  _115
REMARK   50  A    between atoms: _115  and  _116
REMARK   51  A    between atoms: _115  and  _118
REMARK   52  A    between atoms: _118  and  _119
REMARK   53  A    between atoms: _119  and  _120
REMARK   54  A    between atoms: _122  and  _124
REMARK   55  A    between atoms: _124  and  _125
REMARK   56  A    between atoms: _124  and  _127
REMARK   57  A    between atoms: _127  and  _128
REMARK   58  A    between atoms: _131  and  _133
REMARK   59  A    between atoms: _133  and  _134
REMARK   60  A    between atoms: _136  and  _138
REMARK   61  A    between atoms: _138  and  _139
REMARK   62  A    between atoms: _141  and  _143
REMARK   63  A    between atoms: _143  and  _144
REMARK   64  A    between atoms: _143  and  _146
REMARK   65  A    between atoms: _146  and  _147
REMARK   66  A    between atoms: _150  and  _152
REMARK   67  A    between atoms: _152  and  _153
REMARK   68  A    between atoms: _155  and  _157
REMARK   69  A    between atoms: _157  and  _158
REMARK   70  A    between atoms: _160  and  _162
REMARK   71  A    between atoms: _162  and  _163
REMARK   72  A    between atoms: _162  and  _165
REMARK   73  A    between atoms: _165  and  _166
REMARK   74  A    between atoms: _172  and  _174
REMARK   75  A    between atoms: _174  and  _175
REMARK   76  A    between atoms: _174  and  _177
REMARK   77  A    between atoms: _177  and  _178
REMARK   78  A    between atoms: _181  and  _183
REMARK   79  A    between atoms: _183  and  _184
REMARK   80  A    between atoms: _183  and  _186
REMARK   81  A    between atoms: _189  and  _191
REMARK   82  A    between atoms: _191  and  _192
REMARK   83  A    between atoms: _191  and  _194
REMARK   84  A    between atoms: _194  and  _195
REMARK   85  A    between atoms: _199  and  _200
REMARK   86  A    between atoms: _205  and  _207
REMARK   87  A    between atoms: _207  and  _208
REMARK   88  A    between atoms: _207  and  _210
REMARK   89  A    between atoms: _210  and  _211
REMARK   90  A    between atoms: _215  and  _216
REMARK   91  A    between atoms: _221  and  _223
REMARK   92  A    between atoms: _223  and  _224
REMARK   93  A    between atoms: _223  and  _226
REMARK   94  A    between atoms: _229  and  _231
REMARK   95  A    between atoms: _231  and  _232
REMARK   96  A    between atoms: _231  and  _234
REMARK   97  A    between atoms: _234  and  _235
REMARK   98  A    between atoms: _240  and  _242
REMARK   99  A    between atoms: _242  and  _243
REMARK  100  A    between atoms: _242  and  _245
REMARK  101  A    between atoms: _245  and  _246
REMARK  102  A    between atoms: _249  and  _251
REMARK  103  A    between atoms: _251  and  _252
REMARK  104  A    between atoms: _251  and  _254
REMARK  105  A    between atoms: _254  and  _255
REMARK  106  A    between atoms: _258  and  _260
REMARK  107  A    between atoms: _260  and  _261
REMARK  108  A    between atoms: _263  and  _265
REMARK  109  A    between atoms: _265  and  _266
REMARK  110  A    between atoms: _265  and  _268
REMARK  111  A    between atoms: _268  and  _269
REMARK  112  A    between atoms: _269  and  _270
REMARK  113  A    between atoms: _270  and  _271
REMARK  114  A    between atoms: _280  and  _282
REMARK  115  A    between atoms: _282  and  _283
REMARK  116  A    between atoms: _282  and  _285
REMARK  117  A    between atoms: _285  and  _286
REMARK  118  A    between atoms: _291  and  _293
REMARK  119  A    between atoms: _293  and  _294
REMARK  120  A    between atoms: _293  and  _296
REMARK  121  A    between atoms: _296  and  _297
REMARK  122  A    between atoms: _297  and  _298
REMARK  123  A    between atoms: _298  and  _299
REMARK  124  A    between atoms: _308  and  _310
REMARK  125  A    between atoms: _310  and  _311
REMARK  126  A    between atoms: _310  and  _313
REMARK  127  A    between atoms: _313  and  _314
REMARK  128  A    between atoms: _317  and  _319
REMARK  129  A    between atoms: _319  and  _320
REMARK  130  A    between atoms: _319  and  _322
REMARK  131  A    between atoms: _322  and  _323
REMARK  132  A    between atoms: _326  and  _328
REMARK  133  A    between atoms: _328  and  _329
REMARK  134  A    between atoms: _328  and  _331
REMARK  135  A    between atoms: _331  and  _332
REMARK  136  A    between atoms: _335  and  _337
REMARK  137  A    between atoms: _337  and  _338
REMARK  138  A    between atoms: _337  and  _340
REMARK  139  A    between atoms: _340  and  _341
REMARK  140  A    between atoms: _344  and  _346
REMARK  141  A    between atoms: _346  and  _347
REMARK  142  A    between atoms: _349  and  _351
REMARK  143  A    between atoms: _351  and  _352
REMARK  144  A    between atoms: _355  and  _357
REMARK  145  A    between atoms: _357  and  _358
REMARK  146  A    between atoms: _357  and  _360
REMARK  147  A    between atoms: _360  and  _361
REMARK  148  A    between atoms: _364  and  _366
REMARK  149  A    between atoms: _366  and  _367
REMARK  150  A    between atoms: _366  and  _369
REMARK  151  A    between atoms: _369  and  _370
REMARK  152  A    between atoms: _373  and  _375
REMARK  153  A    between atoms: _375  and  _376
REMARK  154  A    between atoms: _375  and  _378
REMARK  155  A    between atoms: _378  and  _379
REMARK  156  A    between atoms: _382  and  _384
REMARK  157  A    between atoms: _384  and  _385
REMARK  158  A    between atoms: _384  and  _387
REMARK  159  A    between atoms: _390  and  _392
REMARK  160  A    between atoms: _392  and  _393
REMARK  161  A    between atoms: _392  and  _395
REMARK  162  A    between atoms: _395  and  _396
REMARK  163  A    between atoms: _399  and  _401
REMARK  164  A    between atoms: _401  and  _402
REMARK  165  A    between atoms: _401  and  _404
REMARK  166  A    between atoms: _404  and  _405
REMARK  167  A    between atoms: _405  and  _406
REMARK  168  A    between atoms: _406  and  _407
REMARK  169  A    between atoms: _407  and  _408
REMARK  170  A    between atoms: _412  and  _414
REMARK  171  A    between atoms: _414  and  _415
REMARK  172  A    between atoms: _414  and  _417
REMARK  173  A    between atoms: _417  and  _418
REMARK  174  A    between atoms: _418  and  _419
REMARK  175  A    between atoms: _421  and  _423
REMARK  176  A    between atoms: _423  and  _424
REMARK  177  A    between atoms: _423  and  _426
REMARK  178  A    between atoms: _426  and  _427
REMARK  179  A    between atoms: _430  and  _432
REMARK  180  A    between atoms: _432  and  _433
REMARK  181  A    between atoms: _435  and  _437
REMARK  182  A    between atoms: _437  and  _438
REMARK  183  A    between atoms: _440  and  _442
REMARK  184  A    between atoms: _442  and  _443
REMARK  185  A    between atoms: _442  and  _445
REMARK  186  A    between atoms: _445  and  _446
REMARK  187  A    between atoms: _449  and  _451
REMARK  188  A    between atoms: _451  and  _452
REMARK  189  A    between atoms: _454  and  _456
REMARK  190  A    between atoms: _456  and  _457
REMARK  191  A    between atoms: _459  and  _461
REMARK  192  A    between atoms: _461  and  _462
REMARK  193  A    between atoms: _461  and  _464
REMARK  194  A    between atoms: _464  and  _465
REMARK  195  A    between atoms: _468  and  _470
REMARK  196  A    between atoms: _470  and  _471
REMARK  197  A    between atoms: _470  and  _473
REMARK  198  A    between atoms: _476  and  _478
REMARK  199  A    between atoms: _478  and  _479
REMARK  200  A    between atoms: _478  and  _481
REMARK  201  A    between atoms: _481  and  _482
REMARK  202  A    between atoms: _486  and  _487
REMARK  203  A    between atoms: _492  and  _494
REMARK  204  A    between atoms: _494  and  _495
REMARK  205  A    between atoms: _494  and  _497
REMARK  206  A    between atoms: _497  and  _498
REMARK  207  A    between atoms: _502  and  _503
REMARK  208  A    between atoms: _508  and  _510
REMARK  209  A    between atoms: _510  and  _511
REMARK  210  A    between atoms: _510  and  _513
REMARK  211  A    between atoms: _516  and  _518
REMARK  212  A    between atoms: _518  and  _519
REMARK  213  A    between atoms: _518  and  _521
REMARK  214  A    between atoms: _521  and  _522
REMARK  215  A    between atoms: _527  and  _529
REMARK  216  A    between atoms: _529  and  _530
REMARK  217  A    between atoms: _529  and  _532
REMARK  218  A    between atoms: _532  and  _533
REMARK  219  A    between atoms: _536  and  _538
REMARK  220  A    between atoms: _538  and  _539
REMARK  221  A    between atoms: _538  and  _541
REMARK  222  A    between atoms: _541  and  _542
REMARK  223  A    between atoms: _545  and  _547
REMARK  224  A    between atoms: _547  and  _548
REMARK  225  A    between atoms: _550  and  _552
REMARK  226  A    between atoms: _552  and  _553
REMARK  227  A    between atoms: _552  and  _555
REMARK  228  A    between atoms: _555  and  _556
REMARK  229  A    between atoms: _556  and  _557
REMARK  230  A    between atoms: _557  and  _558
REMARK  231  A    between atoms: _567  and  _569
REMARK  232  A    between atoms: _569  and  _570
REMARK  233  A    between atoms: _569  and  _572
REMARK  234  A    between atoms: _572  and  _573
REMARK                            x       y       z     vdW  Elec       q    Type
REMARK                         _______ _______ _______ _____ _____    ______ ____
ROOT
ATOM      1  O   HOH     1     -21.937  20.592 -11.789  0.00  0.00    +0.000 OA
ENDROOT
TORSDOF 0
REMARK  Name = ../refined-set-2016/3bgc/3bgc_pocket.pdb
REMARK  234 active torsions:
REMARK  status: ('A' for Active; 'I' for Inactive)
REMARK    1  A    between atoms: _1  and  _3
REMARK    2  A    between atoms: _3  and  _4
REMARK    3  A    between atoms: _3  and  _6
REMARK    4  A    between atoms: _6  and  _7
REMARK    5  A    between atoms: _7  and  _8
REMARK    6  A    between atoms: _8  and  _9
REMARK    7  A    between atoms: _18  and  _20
REMARK    8  A    between atoms: _20  and  _21
REMARK    9  A    between atoms: _20  and  _23
REMARK   10  A    between atoms: _23  and  _24
REMARK   11  A    between atoms: _27  and  _29
REMARK   12  A    between atoms: _29  and  _30
REMARK   13  A    between atoms: _29  and  _32
REMARK   14  A    between atoms: _32  and  _33
REMARK   15  A    between atoms: _36  and  _38
REMARK   16  A    between atoms: _38  and  _39
REMARK   17  A    between atoms: _38  and  _41
REMARK   18  A    between atoms: _41  and  _42
REMARK   19  A    between atoms: _45  and  _47
REMARK   20  A    between atoms: _47  and  _48
REMARK   21  A    between atoms: _50  and  _52
REMARK   22  A    between atoms: _52  and  _53
REMARK   23  A    between atoms: _56  and  _58
REMARK   24  A    between atoms: _58  and  _59
REMARK   25  A    between atoms: _58  and  _61
REMARK   26  A    between atoms: _61  and  _62
REMARK   27  A    between atoms: _65  and  _67
REMARK   28  A    between atoms: _67  and  _68
REMARK   29  A    between atoms: _67  and  _70
REMARK   30  A    between atoms: _70  and  _71
REMARK   31  A    between atoms: _74  and  _76
REMARK   32  A    between atoms: _76  and  _77
REMARK   33  A    between atoms: _76  and  _79
REMARK   34  A    between atoms: _79  and  _80
REMARK   35  A    between atoms: _83  and  _85
REMARK   36  A    between atoms: _85  and  _86
REMARK   37  A    between atoms: _85  and  _88
REMARK   38  A    between atoms: _91  and  _93
REMARK   39  A    between atoms: _93  and  _94
REMARK   40  A    between atoms: _93  and  _96
REMARK   41  A    between atoms: _96  and  _97
REMARK   42  A    between atoms: _100  and  _102
REMARK   43  A    between atoms: _102  and  _103
REMARK   44  A    between atoms: _102  and  _105
REMARK   45  A    between atoms: _105  and  _106
REMARK   46  A    between atoms: _106  and  _107
REMARK   47  A    between atoms: _107  and  _108
REMARK   48  A    between atoms: _108  and  _109
REMARK   49  A    between atoms: _113  and  _115
REMARK   50  A    between atoms: _115  and  _116
REMARK   51  A    between atoms: _115  and  _118
REMARK   52  A    between atoms: _118  and  _119
REMARK   53  A    between atoms: _119  and  _120
REMARK   54  A    between atoms: _122  and  _124
REMARK   55  A    between atoms: _124  and  _125
REMARK   56  A    between atoms: _124  and  _127
REMARK   57  A    between atoms: _127  and  _128
REMARK   58  A    between atoms: _131  and  _133
REMARK   59  A    between atoms: _133  and  _134
REMARK   60  A    between atoms: _136  and  _138
REMARK   61  A    between atoms: _138  and  _139
REMARK   62  A    between atoms: _141  and  _143
REMARK   63  A    between atoms: _143  and  _144
REMARK   64  A    between atoms: _143  and  _146
REMARK   65  A    between atoms: _146  and  _147
REMARK   66  A    between atoms: _150  and  _152
REMARK   67  A    between atoms: _152  and  _153
REMARK   68  A    between atoms: _155  and  _157
REMARK   69  A    between atoms: _157  and  _158
REMARK   70  A    between atoms: _160  and  _162
REMARK   71  A    between atoms: _162  and  _163
REMARK   72  A    between atoms: _162  and  _165
REMARK   73  A    between atoms: _165  and  _166
REMARK   74  A    between atoms: _172  and  _174
REMARK   75  A    between atoms: _174  and  _175
REMARK   76  A    between atoms: _174  and  _177
REMARK   77  A    between atoms: _177  and  _178
REMARK   78  A    between atoms: _181  and  _183
REMARK   79  A    between atoms: _183  and  _184
REMARK   80  A    between atoms: _183  and  _186
REMARK   81  A    between atoms: _189  and  _191
REMARK   82  A    between atoms: _191  and  _192
REMARK   83  A    between atoms: _191  and  _194
REMARK   84  A    between atoms: _194  and  _195
REMARK   85  A    between atoms: _199  and  _200
REMARK   86  A    between atoms: _205  and  _207
REMARK   87  A    between atoms: _207  and  _208
REMARK   88  A    between atoms: _207  and  _210
REMARK   89  A    between atoms: _210  and  _211
REMARK   90  A    between atoms: _215  and  _216
REMARK   91  A    between atoms: _221  and  _223
REMARK   92  A    between atoms: _223  and  _224
REMARK   93  A    between atoms: _223  and  _226
REMARK   94  A    between atoms: _229  and  _231
REMARK   95  A    between atoms: _231  and  _232
REMARK   96  A    between atoms: _231  and  _234
REMARK   97  A    between atoms: _234  and  _235
REMARK   98  A    between atoms: _240  and  _242
REMARK   99  A    between atoms: _242  and  _243
REMARK  100  A    between atoms: _242  and  _245
REMARK  101  A    between atoms: _245  and  _246
REMARK  102  A    between atoms: _249  and  _251
REMARK  103  A    between atoms: _251  and  _252
REMARK  104  A    between atoms: _251  and  _254
REMARK  105  A    between atoms: _254  and  _255
REMARK  106  A    between atoms: _258  and  _260
REMARK  107  A    between atoms: _260  and  _261
REMARK  108  A    between atoms: _263  and  _265
REMARK  109  A    between atoms: _265  and  _266
REMARK  110  A    between atoms: _265  and  _268
REMARK  111  A    between atoms: _268  and  _269
REMARK  112  A    between atoms: _269  and  _270
REMARK  113  A    between atoms: _270  and  _271
REMARK  114  A    between atoms: _280  and  _282
REMARK  115  A    between atoms: _282  and  _283
REMARK  116  A    between atoms: _282  and  _285
REMARK  117  A    between atoms: _285  and  _286
REMARK  118  A    between atoms: _291  and  _293
REMARK  119  A    between atoms: _293  and  _294
REMARK  120  A    between atoms: _293  and  _296
REMARK  121  A    between atoms: _296  and  _297
REMARK  122  A    between atoms: _297  and  _298
REMARK  123  A    between atoms: _298  and  _299
REMARK  124  A    between atoms: _308  and  _310
REMARK  125  A    between atoms: _310  and  _311
REMARK  126  A    between atoms: _310  and  _313
REMARK  127  A    between atoms: _313  and  _314
REMARK  128  A    between atoms: _317  and  _319
REMARK  129  A    between atoms: _319  and  _320
REMARK  130  A    between atoms: _319  and  _322
REMARK  131  A    between atoms: _322  and  _323
REMARK  132  A    between atoms: _326  and  _328
REMARK  133  A    between atoms: _328  and  _329
REMARK  134  A    between atoms: _328  and  _331
REMARK  135  A    between atoms: _331  and  _332
REMARK  136  A    between atoms: _335  and  _337
REMARK  137  A    between atoms: _337  and  _338
REMARK  138  A    between atoms: _337  and  _340
REMARK  139  A    between atoms: _340  and  _341
REMARK  140  A    between atoms: _344  and  _346
REMARK  141  A    between atoms: _346  and  _347
REMARK  142  A    between atoms: _349  and  _351
REMARK  143  A    between atoms: _351  and  _352
REMARK  144  A    between atoms: _355  and  _357
REMARK  145  A    between atoms: _357  and  _358
REMARK  146  A    between atoms: _357  and  _360
REMARK  147  A    between atoms: _360  and  _361
REMARK  148  A    between atoms: _364  and  _366
REMARK  149  A    between atoms: _366  and  _367
REMARK  150  A    between atoms: _366  and  _369
REMARK  151  A    between atoms: _369  and  _370
REMARK  152  A    between atoms: _373  and  _375
REMARK  153  A    between atoms: _375  and  _376
REMARK  154  A    between atoms: _375  and  _378
REMARK  155  A    between atoms: _378  and  _379
REMARK  156  A    between atoms: _382  and  _384
REMARK  157  A    between atoms: _384  and  _385
REMARK  158  A    between atoms: _384  and  _387
REMARK  159  A    between atoms: _390  and  _392
REMARK  160  A    between atoms: _392  and  _393
REMARK  161  A    between atoms: _392  and  _395
REMARK  162  A    between atoms: _395  and  _396
REMARK  163  A    between atoms: _399  and  _401
REMARK  164  A    between atoms: _401  and  _402
REMARK  165  A    between atoms: _401  and  _404
REMARK  166  A    between atoms: _404  and  _405
REMARK  167  A    between atoms: _405  and  _406
REMARK  168  A    between atoms: _406  and  _407
REMARK  169  A    between atoms: _407  and  _408
REMARK  170  A    between atoms: _412  and  _414
REMARK  171  A    between atoms: _414  and  _415
REMARK  172  A    between atoms: _414  and  _417
REMARK  173  A    between atoms: _417  and  _418
REMARK  174  A    between atoms: _418  and  _419
REMARK  175  A    between atoms: _421  and  _423
REMARK  176  A    between atoms: _423  and  _424
REMARK  177  A    between atoms: _423  and  _426
REMARK  178  A    between atoms: _426  and  _427
REMARK  179  A    between atoms: _430  and  _432
REMARK  180  A    between atoms: _432  and  _433
REMARK  181  A    between atoms: _435  and  _437
REMARK  182  A    between atoms: _437  and  _438
REMARK  183  A    between atoms: _440  and  _442
REMARK  184  A    between atoms: _442  and  _443
REMARK  185  A    between atoms: _442  and  _445
REMARK  186  A    between atoms: _445  and  _446
REMARK  187  A    between atoms: _449  and  _451
REMARK  188  A    between atoms: _451  and  _452
REMARK  189  A    between atoms: _454  and  _456
REMARK  190  A    between atoms: _456  and  _457
REMARK  191  A    between atoms: _459  and  _461
REMARK  192  A    between atoms: _461  and  _462
REMARK  193  A    between atoms: _461  and  _464
REMARK  194  A    between atoms: _464  and  _465
REMARK  195  A    between atoms: _468  and  _470
REMARK  196  A    between atoms: _470  and  _471
REMARK  197  A    between atoms: _470  and  _473
REMARK  198  A    between atoms: _476  and  _478
REMARK  199  A    between atoms: _478  and  _479
REMARK  200  A    between atoms: _478  and  _481
REMARK  201  A    between atoms: _481  and  _482
REMARK  202  A    between atoms: _486  and  _487
REMARK  203  A    between atoms: _492  and  _494
REMARK  204  A    between atoms: _494  and  _495
REMARK  205  A    between atoms: _494  and  _497
REMARK  206  A    between atoms: _497  and  _498
REMARK  207  A    between atoms: _502  and  _503
REMARK  208  A    between atoms: _508  and  _510
REMARK  209  A    between atoms: _510  and  _511
REMARK  210  A    between atoms: _510  and  _513
REMARK  211  A    between atoms: _516  and  _518
REMARK  212  A    between atoms: _518  and  _519
REMARK  213  A    between atoms: _518  and  _521
REMARK  214  A    between atoms: _521  and  _522
REMARK  215  A    between atoms: _527  and  _529
REMARK  216  A    between atoms: _529  and  _530
REMARK  217  A    between atoms: _529  and  _532
REMARK  218  A    between atoms: _532  and  _533
REMARK  219  A    between atoms: _536  and  _538
REMARK  220  A    between atoms: _538  and  _539
REMARK  221  A    between atoms: _538  and  _541
REMARK  222  A    between atoms: _541  and  _542
REMARK  223  A    between atoms: _545  and  _547
REMARK  224  A    between atoms: _547  and  _548
REMARK  225  A    between atoms: _550  and  _552
REMARK  226  A    between atoms: _552  and  _553
REMARK  227  A    between atoms: _552  and  _555
REMARK  228  A    between atoms: _555  and  _556
REMARK  229  A    between atoms: _556  and  _557
REMARK  230  A    between atoms: _557  and  _558
REMARK  231  A    between atoms: _567  and  _569
REMARK  232  A    between atoms: _569  and  _570
REMARK  233  A    between atoms: _569  and  _572
REMARK  234  A    between atoms: _572  and  _573
REMARK                            x       y       z     vdW  Elec       q    Type
REMARK                         _______ _______ _______ _____ _____    ______ ____
ROOT
ATOM      1  O   HOH     1      -4.418  18.867 -18.784  0.00  0.00    +0.000 OA
ENDROOT
TORSDOF 0
REMARK  Name = ../refined-set-2016/3bgc/3bgc_pocket.pdb
REMARK  234 active torsions:
REMARK  status: ('A' for Active; 'I' for Inactive)
REMARK    1  A    between atoms: _1  and  _3
REMARK    2  A    between atoms: _3  and  _4
REMARK    3  A    between atoms: _3  and  _6
REMARK    4  A    between atoms: _6  and  _7
REMARK    5  A    between atoms: _7  and  _8
REMARK    6  A    between atoms: _8  and  _9
REMARK    7  A    between atoms: _18  and  _20
REMARK    8  A    between atoms: _20  and  _21
REMARK    9  A    between atoms: _20  and  _23
REMARK   10  A    between atoms: _23  and  _24
REMARK   11  A    between atoms: _27  and  _29
REMARK   12  A    between atoms: _29  and  _30
REMARK   13  A    between atoms: _29  and  _32
REMARK   14  A    between atoms: _32  and  _33
REMARK   15  A    between atoms: _36  and  _38
REMARK   16  A    between atoms: _38  and  _39
REMARK   17  A    between atoms: _38  and  _41
REMARK   18  A    between atoms: _41  and  _42
REMARK   19  A    between atoms: _45  and  _47
REMARK   20  A    between atoms: _47  and  _48
REMARK   21  A    between atoms: _50  and  _52
REMARK   22  A    between atoms: _52  and  _53
REMARK   23  A    between atoms: _56  and  _58
REMARK   24  A    between atoms: _58  and  _59
REMARK   25  A    between atoms: _58  and  _61
REMARK   26  A    between atoms: _61  and  _62
REMARK   27  A    between atoms: _65  and  _67
REMARK   28  A    between atoms: _67  and  _68
REMARK   29  A    between atoms: _67  and  _70
REMARK   30  A    between atoms: _70  and  _71
REMARK   31  A    between atoms: _74  and  _76
REMARK   32  A    between atoms: _76  and  _77
REMARK   33  A    between atoms: _76  and  _79
REMARK   34  A    between atoms: _79  and  _80
REMARK   35  A    between atoms: _83  and  _85
REMARK   36  A    between atoms: _85  and  _86
REMARK   37  A    between atoms: _85  and  _88
REMARK   38  A    between atoms: _91  and  _93
REMARK   39  A    between atoms: _93  and  _94
REMARK   40  A    between atoms: _93  and  _96
REMARK   41  A    between atoms: _96  and  _97
REMARK   42  A    between atoms: _100  and  _102
REMARK   43  A    between atoms: _102  and  _103
REMARK   44  A    between atoms: _102  and  _105
REMARK   45  A    between atoms: _105  and  _106
REMARK   46  A    between atoms: _106  and  _107
REMARK   47  A    between atoms: _107  and  _108
REMARK   48  A    between atoms: _108  and  _109
REMARK   49  A    between atoms: _113  and  _115
REMARK   50  A    between atoms: _115  and  _116
REMARK   51  A    between atoms: _115  and  _118
REMARK   52  A    between atoms: _118  and  _119
REMARK   53  A    between atoms: _119  and  _120
REMARK   54  A    between atoms: _122  and  _124
REMARK   55  A    between atoms: _124  and  _125
REMARK   56  A    between atoms: _124  and  _127
REMARK   57  A    between atoms: _127  and  _128
REMARK   58  A    between atoms: _131  and  _133
REMARK   59  A    between atoms: _133  and  _134
REMARK   60  A    between atoms: _136  and  _138
REMARK   61  A    between atoms: _138  and  _139
REMARK   62  A    between atoms: _141  and  _143
REMARK   63  A    between atoms: _143  and  _144
REMARK   64  A    between atoms: _143  and  _146
REMARK   65  A    between atoms: _146  and  _147
REMARK   66  A    between atoms: _150  and  _152
REMARK   67  A    between atoms: _152  and  _153
REMARK   68  A    between atoms: _155  and  _157
REMARK   69  A    between atoms: _157  and  _158
REMARK   70  A    between atoms: _160  and  _162
REMARK   71  A    between atoms: _162  and  _163
REMARK   72  A    between atoms: _162  and  _165
REMARK   73  A    between atoms: _165  and  _166
REMARK   74  A    between atoms: _172  and  _174
REMARK   75  A    between atoms: _174  and  _175
REMARK   76  A    between atoms: _174  and  _177
REMARK   77  A    between atoms: _177  and  _178
REMARK   78  A    between atoms: _181  and  _183
REMARK   79  A    between atoms: _183  and  _184
REMARK   80  A    between atoms: _183  and  _186
REMARK   81  A    between atoms: _189  and  _191
REMARK   82  A    between atoms: _191  and  _192
REMARK   83  A    between atoms: _191  and  _194
REMARK   84  A    between atoms: _194  and  _195
REMARK   85  A    between atoms: _199  and  _200
REMARK   86  A    between atoms: _205  and  _207
REMARK   87  A    between atoms: _207  and  _208
REMARK   88  A    between atoms: _207  and  _210
REMARK   89  A    between atoms: _210  and  _211
REMARK   90  A    between atoms: _215  and  _216
REMARK   91  A    between atoms: _221  and  _223
REMARK   92  A    between atoms: _223  and  _224
REMARK   93  A    between atoms: _223  and  _226
REMARK   94  A    between atoms: _229  and  _231
REMARK   95  A    between atoms: _231  and  _232
REMARK   96  A    between atoms: _231  and  _234
REMARK   97  A    between atoms: _234  and  _235
REMARK   98  A    between atoms: _240  and  _242
REMARK   99  A    between atoms: _242  and  _243
REMARK  100  A    between atoms: _242  and  _245
REMARK  101  A    between atoms: _245  and  _246
REMARK  102  A    between atoms: _249  and  _251
REMARK  103  A    between atoms: _251  and  _252
REMARK  104  A    between atoms: _251  and  _254
REMARK  105  A    between atoms: _254  and  _255
REMARK  106  A    between atoms: _258  and  _260
REMARK  107  A    between atoms: _260  and  _261
REMARK  108  A    between atoms: _263  and  _265
REMARK  109  A    between atoms: _265  and  _266
REMARK  110  A    between atoms: _265  and  _268
REMARK  111  A    between atoms: _268  and  _269
REMARK  112  A    between atoms: _269  and  _270
REMARK  113  A    between atoms: _270  and  _271
REMARK  114  A    between atoms: _280  and  _282
REMARK  115  A    between atoms: _282  and  _283
REMARK  116  A    between atoms: _282  and  _285
REMARK  117  A    between atoms: _285  and  _286
REMARK  118  A    between atoms: _291  and  _293
REMARK  119  A    between atoms: _293  and  _294
REMARK  120  A    between atoms: _293  and  _296
REMARK  121  A    between atoms: _296  and  _297
REMARK  122  A    between atoms: _297  and  _298
REMARK  123  A    between atoms: _298  and  _299
REMARK  124  A    between atoms: _308  and  _310
REMARK  125  A    between atoms: _310  and  _311
REMARK  126  A    between atoms: _310  and  _313
REMARK  127  A    between atoms: _313  and  _314
REMARK  128  A    between atoms: _317  and  _319
REMARK  129  A    between atoms: _319  and  _320
REMARK  130  A    between atoms: _319  and  _322
REMARK  131  A    between atoms: _322  and  _323
REMARK  132  A    between atoms: _326  and  _328
REMARK  133  A    between atoms: _328  and  _329
REMARK  134  A    between atoms: _328  and  _331
REMARK  135  A    between atoms: _331  and  _332
REMARK  136  A    between atoms: _335  and  _337
REMARK  137  A    between atoms: _337  and  _338
REMARK  138  A    between atoms: _337  and  _340
REMARK  139  A    between atoms: _340  and  _341
REMARK  140  A    between atoms: _344  and  _346
REMARK  141  A    between atoms: _346  and  _347
REMARK  142  A    between atoms: _349  and  _351
REMARK  143  A    between atoms: _351  and  _352
REMARK  144  A    between atoms: _355  and  _357
REMARK  145  A    between atoms: _357  and  _358
REMARK  146  A    between atoms: _357  and  _360
REMARK  147  A    between atoms: _360  and  _361
REMARK  148  A    between atoms: _364  and  _366
REMARK  149  A    between atoms: _366  and  _367
REMARK  150  A    between atoms: _366  and  _369
REMARK  151  A    between atoms: _369  and  _370
REMARK  152  A    between atoms: _373  and  _375
REMARK  153  A    between atoms: _375  and  _376
REMARK  154  A    between atoms: _375  and  _378
REMARK  155  A    between atoms: _378  and  _379
REMARK  156  A    between atoms: _382  and  _384
REMARK  157  A    between atoms: _384  and  _385
REMARK  158  A    between atoms: _384  and  _387
REMARK  159  A    between atoms: _390  and  _392
REMARK  160  A    between atoms: _392  and  _393
REMARK  161  A    between atoms: _392  and  _395
REMARK  162  A    between atoms: _395  and  _396
REMARK  163  A    between atoms: _399  and  _401
REMARK  164  A    between atoms: _401  and  _402
REMARK  165  A    between atoms: _401  and  _404
REMARK  166  A    between atoms: _404  and  _405
REMARK  167  A    between atoms: _405  and  _406
REMARK  168  A    between atoms: _406  and  _407
REMARK  169  A    between atoms: _407  and  _408
REMARK  170  A    between atoms: _412  and  _414
REMARK  171  A    between atoms: _414  and  _415
REMARK  172  A    between atoms: _414  and  _417
REMARK  173  A    between atoms: _417  and  _418
REMARK  174  A    between atoms: _418  and  _419
REMARK  175  A    between atoms: _421  and  _423
REMARK  176  A    between atoms: _423  and  _424
REMARK  177  A    between atoms: _423  and  _426
REMARK  178  A    between atoms: _426  and  _427
REMARK  179  A    between atoms: _430  and  _432
REMARK  180  A    between atoms: _432  and  _433
REMARK  181  A    between atoms: _435  and  _437
REMARK  182  A    between atoms: _437  and  _438
REMARK  183  A    between atoms: _440  and  _442
REMARK  184  A    between atoms: _442  and  _443
REMARK  185  A    between atoms: _442  and  _445
REMARK  186  A    between atoms: _445  and  _446
REMARK  187  A    between atoms: _449  and  _451
REMARK  188  A    between atoms: _451  and  _452
REMARK  189  A    between atoms: _454  and  _456
REMARK  190  A    between atoms: _456  and  _457
REMARK  191  A    between atoms: _459  and  _461
REMARK  192  A    between atoms: _461  and  _462
REMARK  193  A    between atoms: _461  and  _464
REMARK  194  A    between atoms: _464  and  _465
REMARK  195  A    between atoms: _468  and  _470
REMARK  196  A    between atoms: _470  and  _471
REMARK  197  A    between atoms: _470  and  _473
REMARK  198  A    between atoms: _476  and  _478
REMARK  199  A    between atoms: _478  and  _479
REMARK  200  A    between atoms: _478  and  _481
REMARK  201  A    between atoms: _481  and  _482
REMARK  202  A    between atoms: _486  and  _487
REMARK  203  A    between atoms: _492  and  _494
REMARK  204  A    between atoms: _494  and  _495
REMARK  205  A    between atoms: _494  and  _497
REMARK  206  A    between atoms: _497  and  _498
REMARK  207  A    between atoms: _502  and  _503
REMARK  208  A    between atoms: _508  and  _510
REMARK  209  A    between atoms: _510  and  _511
REMARK  210  A    between atoms: _510  and  _513
REMARK  211  A    between atoms: _516  and  _518
REMARK  212  A    between atoms: _518  and  _519
REMARK  213  A    between atoms: _518  and  _521
REMARK  214  A    between atoms: _521  and  _522
REMARK  215  A    between atoms: _527  and  _529
REMARK  216  A    between atoms: _529  and  _530
REMARK  217  A    between atoms: _529  and  _532
REMARK  218  A    between atoms: _532  and  _533
REMARK  219  A    between atoms: _536  and  _538
REMARK  220  A    between atoms: _538  and  _539
REMARK  221  A    between atoms: _538  and  _541
REMARK  222  A    between atoms: _541  and  _542
REMARK  223  A    between atoms: _545  and  _547
REMARK  224  A    between atoms: _547  and  _548
REMARK  225  A    between atoms: _550  and  _552
REMARK  226  A    between atoms: _552  and  _553
REMARK  227  A    between atoms: _552  and  _555
REMARK  228  A    between atoms: _555  and  _556
REMARK  229  A    between atoms: _556  and  _557
REMARK  230  A    between atoms: _557  and  _558
REMARK  231  A    between atoms: _567  and  _569
REMARK  232  A    between atoms: _569  and  _570
REMARK  233  A    between atoms: _569  and  _572
REMARK  234  A    between atoms: _572  and  _573
REMARK                            x       y       z     vdW  Elec       q    Type
REMARK                         _______ _______ _______ _____ _____    ______ ____
ROOT
ATOM      1  O   HOH     1     -21.415  19.027 -18.233  0.00  0.00    +0.000 OA
ENDROOT
TORSDOF 0
REMARK  Name = ../refined-set-2016/3bgc/3bgc_pocket.pdb
REMARK  234 active torsions:
REMARK  status: ('A' for Active; 'I' for Inactive)
REMARK    1  A    between atoms: _1  and  _3
REMARK    2  A    between atoms: _3  and  _4
REMARK    3  A    between atoms: _3  and  _6
REMARK    4  A    between atoms: _6  and  _7
REMARK    5  A    between atoms: _7  and  _8
REMARK    6  A    between atoms: _8  and  _9
REMARK    7  A    between atoms: _18  and  _20
REMARK    8  A    between atoms: _20  and  _21
REMARK    9  A    between atoms: _20  and  _23
REMARK   10  A    between atoms: _23  and  _24
REMARK   11  A    between atoms: _27  and  _29
REMARK   12  A    between atoms: _29  and  _30
REMARK   13  A    between atoms: _29  and  _32
REMARK   14  A    between atoms: _32  and  _33
REMARK   15  A    between atoms: _36  and  _38
REMARK   16  A    between atoms: _38  and  _39
REMARK   17  A    between atoms: _38  and  _41
REMARK   18  A    between atoms: _41  and  _42
REMARK   19  A    between atoms: _45  and  _47
REMARK   20  A    between atoms: _47  and  _48
REMARK   21  A    between atoms: _50  and  _52
REMARK   22  A    between atoms: _52  and  _53
REMARK   23  A    between atoms: _56  and  _58
REMARK   24  A    between atoms: _58  and  _59
REMARK   25  A    between atoms: _58  and  _61
REMARK   26  A    between atoms: _61  and  _62
REMARK   27  A    between atoms: _65  and  _67
REMARK   28  A    between atoms: _67  and  _68
REMARK   29  A    between atoms: _67  and  _70
REMARK   30  A    between atoms: _70  and  _71
REMARK   31  A    between atoms: _74  and  _76
REMARK   32  A    between atoms: _76  and  _77
REMARK   33  A    between atoms: _76  and  _79
REMARK   34  A    between atoms: _79  and  _80
REMARK   35  A    between atoms: _83  and  _85
REMARK   36  A    between atoms: _85  and  _86
REMARK   37  A    between atoms: _85  and  _88
REMARK   38  A    between atoms: _91  and  _93
REMARK   39  A    between atoms: _93  and  _94
REMARK   40  A    between atoms: _93  and  _96
REMARK   41  A    between atoms: _96  and  _97
REMARK   42  A    between atoms: _100  and  _102
REMARK   43  A    between atoms: _102  and  _103
REMARK   44  A    between atoms: _102  and  _105
REMARK   45  A    between atoms: _105  and  _106
REMARK   46  A    between atoms: _106  and  _107
REMARK   47  A    between atoms: _107  and  _108
REMARK   48  A    between atoms: _108  and  _109
REMARK   49  A    between atoms: _113  and  _115
REMARK   50  A    between atoms: _115  and  _116
REMARK   51  A    between atoms: _115  and  _118
REMARK   52  A    between atoms: _118  and  _119
REMARK   53  A    between atoms: _119  and  _120
REMARK   54  A    between atoms: _122  and  _124
REMARK   55  A    between atoms: _124  and  _125
REMARK   56  A    between atoms: _124  and  _127
REMARK   57  A    between atoms: _127  and  _128
REMARK   58  A    between atoms: _131  and  _133
REMARK   59  A    between atoms: _133  and  _134
REMARK   60  A    between atoms: _136  and  _138
REMARK   61  A    between atoms: _138  and  _139
REMARK   62  A    between atoms: _141  and  _143
REMARK   63  A    between atoms: _143  and  _144
REMARK   64  A    between atoms: _143  and  _146
REMARK   65  A    between atoms: _146  and  _147
REMARK   66  A    between atoms: _150  and  _152
REMARK   67  A    between atoms: _152  and  _153
REMARK   68  A    between atoms: _155  and  _157
REMARK   69  A    between atoms: _157  and  _158
REMARK   70  A    between atoms: _160  and  _162
REMARK   71  A    between atoms: _162  and  _163
REMARK   72  A    between atoms: _162  and  _165
REMARK   73  A    between atoms: _165  and  _166
REMARK   74  A    between atoms: _172  and  _174
REMARK   75  A    between atoms: _174  and  _175
REMARK   76  A    between atoms: _174  and  _177
REMARK   77  A    between atoms: _177  and  _178
REMARK   78  A    between atoms: _181  and  _183
REMARK   79  A    between atoms: _183  and  _184
REMARK   80  A    between atoms: _183  and  _186
REMARK   81  A    between atoms: _189  and  _191
REMARK   82  A    between atoms: _191  and  _192
REMARK   83  A    between atoms: _191  and  _194
REMARK   84  A    between atoms: _194  and  _195
REMARK   85  A    between atoms: _199  and  _200
REMARK   86  A    between atoms: _205  and  _207
REMARK   87  A    between atoms: _207  and  _208
REMARK   88  A    between atoms: _207  and  _210
REMARK   89  A    between atoms: _210  and  _211
REMARK   90  A    between atoms: _215  and  _216
REMARK   91  A    between atoms: _221  and  _223
REMARK   92  A    between atoms: _223  and  _224
REMARK   93  A    between atoms: _223  and  _226
REMARK   94  A    between atoms: _229  and  _231
REMARK   95  A    between atoms: _231  and  _232
REMARK   96  A    between atoms: _231  and  _234
REMARK   97  A    between atoms: _234  and  _235
REMARK   98  A    between atoms: _240  and  _242
REMARK   99  A    between atoms: _242  and  _243
REMARK  100  A    between atoms: _242  and  _245
REMARK  101  A    between atoms: _245  and  _246
REMARK  102  A    between atoms: _249  and  _251
REMARK  103  A    between atoms: _251  and  _252
REMARK  104  A    between atoms: _251  and  _254
REMARK  105  A    between atoms: _254  and  _255
REMARK  106  A    between atoms: _258  and  _260
REMARK  107  A    between atoms: _260  and  _261
REMARK  108  A    between atoms: _263  and  _265
REMARK  109  A    between atoms: _265  and  _266
REMARK  110  A    between atoms: _265  and  _268
REMARK  111  A    between atoms: _268  and  _269
REMARK  112  A    between atoms: _269  and  _270
REMARK  113  A    between atoms: _270  and  _271
REMARK  114  A    between atoms: _280  and  _282
REMARK  115  A    between atoms: _282  and  _283
REMARK  116  A    between atoms: _282  and  _285
REMARK  117  A    between atoms: _285  and  _286
REMARK  118  A    between atoms: _291  and  _293
REMARK  119  A    between atoms: _293  and  _294
REMARK  120  A    between atoms: _293  and  _296
REMARK  121  A    between atoms: _296  and  _297
REMARK  122  A    between atoms: _297  and  _298
REMARK  123  A    between atoms: _298  and  _299
REMARK  124  A    between atoms: _308  and  _310
REMARK  125  A    between atoms: _310  and  _311
REMARK  126  A    between atoms: _310  and  _313
REMARK  127  A    between atoms: _313  and  _314
REMARK  128  A    between atoms: _317  and  _319
REMARK  129  A    between atoms: _319  and  _320
REMARK  130  A    between atoms: _319  and  _322
REMARK  131  A    between atoms: _322  and  _323
REMARK  132  A    between atoms: _326  and  _328
REMARK  133  A    between atoms: _328  and  _329
REMARK  134  A    between atoms: _328  and  _331
REMARK  135  A    between atoms: _331  and  _332
REMARK  136  A    between atoms: _335  and  _337
REMARK  137  A    between atoms: _337  and  _338
REMARK  138  A    between atoms: _337  and  _340
REMARK  139  A    between atoms: _340  and  _341
REMARK  140  A    between atoms: _344  and  _346
REMARK  141  A    between atoms: _346  and  _347
REMARK  142  A    between atoms: _349  and  _351
REMARK  143  A    between atoms: _351  and  _352
REMARK  144  A    between atoms: _355  and  _357
REMARK  145  A    between atoms: _357  and  _358
REMARK  146  A    between atoms: _357  and  _360
REMARK  147  A    between atoms: _360  and  _361
REMARK  148  A    between atoms: _364  and  _366
REMARK  149  A    between atoms: _366  and  _367
REMARK  150  A    between atoms: _366  and  _369
REMARK  151  A    between atoms: _369  and  _370
REMARK  152  A    between atoms: _373  and  _375
REMARK  153  A    between atoms: _375  and  _376
REMARK  154  A    between atoms: _375  and  _378
REMARK  155  A    between atoms: _378  and  _379
REMARK  156  A    between atoms: _382  and  _384
REMARK  157  A    between atoms: _384  and  _385
REMARK  158  A    between atoms: _384  and  _387
REMARK  159  A    between atoms: _390  and  _392
REMARK  160  A    between atoms: _392  and  _393
REMARK  161  A    between atoms: _392  and  _395
REMARK  162  A    between atoms: _395  and  _396
REMARK  163  A    between atoms: _399  and  _401
REMARK  164  A    between atoms: _401  and  _402
REMARK  165  A    between atoms: _401  and  _404
REMARK  166  A    between atoms: _404  and  _405
REMARK  167  A    between atoms: _405  and  _406
REMARK  168  A    between atoms: _406  and  _407
REMARK  169  A    between atoms: _407  and  _408
REMARK  170  A    between atoms: _412  and  _414
REMARK  171  A    between atoms: _414  and  _415
REMARK  172  A    between atoms: _414  and  _417
REMARK  173  A    between atoms: _417  and  _418
REMARK  174  A    between atoms: _418  and  _419
REMARK  175  A    between atoms: _421  and  _423
REMARK  176  A    between atoms: _423  and  _424
REMARK  177  A    between atoms: _423  and  _426
REMARK  178  A    between atoms: _426  and  _427
REMARK  179  A    between atoms: _430  and  _432
REMARK  180  A    between atoms: _432  and  _433
REMARK  181  A    between atoms: _435  and  _437
REMARK  182  A    between atoms: _437  and  _438
REMARK  183  A    between atoms: _440  and  _442
REMARK  184  A    between atoms: _442  and  _443
REMARK  185  A    between atoms: _442  and  _445
REMARK  186  A    between atoms: _445  and  _446
REMARK  187  A    between atoms: _449  and  _451
REMARK  188  A    between atoms: _451  and  _452
REMARK  189  A    between atoms: _454  and  _456
REMARK  190  A    between atoms: _456  and  _457
REMARK  191  A    between atoms: _459  and  _461
REMARK  192  A    between atoms: _461  and  _462
REMARK  193  A    between atoms: _461  and  _464
REMARK  194  A    between atoms: _464  and  _465
REMARK  195  A    between atoms: _468  and  _470
REMARK  196  A    between atoms: _470  and  _471
REMARK  197  A    between atoms: _470  and  _473
REMARK  198  A    between atoms: _476  and  _478
REMARK  199  A    between atoms: _478  and  _479
REMARK  200  A    between atoms: _478  and  _481
REMARK  201  A    between atoms: _481  and  _482
REMARK  202  A    between atoms: _486  and  _487
REMARK  203  A    between atoms: _492  and  _494
REMARK  204  A    between atoms: _494  and  _495
REMARK  205  A    between atoms: _494  and  _497
REMARK  206  A    between atoms: _497  and  _498
REMARK  207  A    between atoms: _502  and  _503
REMARK  208  A    between atoms: _508  and  _510
REMARK  209  A    between atoms: _510  and  _511
REMARK  210  A    between atoms: _510  and  _513
REMARK  211  A    between atoms: _516  and  _518
REMARK  212  A    between atoms: _518  and  _519
REMARK  213  A    between atoms: _518  and  _521
REMARK  214  A    between atoms: _521  and  _522
REMARK  215  A    between atoms: _527  and  _529
REMARK  216  A    between atoms: _529  and  _530
REMARK  217  A    between atoms: _529  and  _532
REMARK  218  A    between atoms: _532  and  _533
REMARK  219  A    between atoms: _536  and  _538
REMARK  220  A    between atoms: _538  and  _539
REMARK  221  A    between atoms: _538  and  _541
REMARK  222  A    between atoms: _541  and  _542
REMARK  223  A    between atoms: _545  and  _547
REMARK  224  A    between atoms: _547  and  _548
REMARK  225  A    between atoms: _550  and  _552
REMARK  226  A    between atoms: _552  and  _553
REMARK  227  A    between atoms: _552  and  _555
REMARK  228  A    between atoms: _555  and  _556
REMARK  229  A    between atoms: _556  and  _557
REMARK  230  A    between atoms: _557  and  _558
REMARK  231  A    between atoms: _567  and  _569
REMARK  232  A    between atoms: _569  and  _570
REMARK  233  A    between atoms: _569  and  _572
REMARK  234  A    between atoms: _572  and  _573
REMARK                            x       y       z     vdW  Elec       q    Type
REMARK                         _______ _______ _______ _____ _____    ______ ____
ROOT
ATOM      1  O   HOH     1     -19.725  26.701 -27.098  0.00  0.00    +0.000 OA
ENDROOT
TORSDOF 0
REMARK  Name = ../refined-set-2016/3bgc/3bgc_pocket.pdb
REMARK  234 active torsions:
REMARK  status: ('A' for Active; 'I' for Inactive)
REMARK    1  A    between atoms: _1  and  _3
REMARK    2  A    between atoms: _3  and  _4
REMARK    3  A    between atoms: _3  and  _6
REMARK    4  A    between atoms: _6  and  _7
REMARK    5  A    between atoms: _7  and  _8
REMARK    6  A    between atoms: _8  and  _9
REMARK    7  A    between atoms: _18  and  _20
REMARK    8  A    between atoms: _20  and  _21
REMARK    9  A    between atoms: _20  and  _23
REMARK   10  A    between atoms: _23  and  _24
REMARK   11  A    between atoms: _27  and  _29
REMARK   12  A    between atoms: _29  and  _30
REMARK   13  A    between atoms: _29  and  _32
REMARK   14  A    between atoms: _32  and  _33
REMARK   15  A    between atoms: _36  and  _38
REMARK   16  A    between atoms: _38  and  _39
REMARK   17  A    between atoms: _38  and  _41
REMARK   18  A    between atoms: _41  and  _42
REMARK   19  A    between atoms: _45  and  _47
REMARK   20  A    between atoms: _47  and  _48
REMARK   21  A    between atoms: _50  and  _52
REMARK   22  A    between atoms: _52  and  _53
REMARK   23  A    between atoms: _56  and  _58
REMARK   24  A    between atoms: _58  and  _59
REMARK   25  A    between atoms: _58  and  _61
REMARK   26  A    between atoms: _61  and  _62
REMARK   27  A    between atoms: _65  and  _67
REMARK   28  A    between atoms: _67  and  _68
REMARK   29  A    between atoms: _67  and  _70
REMARK   30  A    between atoms: _70  and  _71
REMARK   31  A    between atoms: _74  and  _76
REMARK   32  A    between atoms: _76  and  _77
REMARK   33  A    between atoms: _76  and  _79
REMARK   34  A    between atoms: _79  and  _80
REMARK   35  A    between atoms: _83  and  _85
REMARK   36  A    between atoms: _85  and  _86
REMARK   37  A    between atoms: _85  and  _88
REMARK   38  A    between atoms: _91  and  _93
REMARK   39  A    between atoms: _93  and  _94
REMARK   40  A    between atoms: _93  and  _96
REMARK   41  A    between atoms: _96  and  _97
REMARK   42  A    between atoms: _100  and  _102
REMARK   43  A    between atoms: _102  and  _103
REMARK   44  A    between atoms: _102  and  _105
REMARK   45  A    between atoms: _105  and  _106
REMARK   46  A    between atoms: _106  and  _107
REMARK   47  A    between atoms: _107  and  _108
REMARK   48  A    between atoms: _108  and  _109
REMARK   49  A    between atoms: _113  and  _115
REMARK   50  A    between atoms: _115  and  _116
REMARK   51  A    between atoms: _115  and  _118
REMARK   52  A    between atoms: _118  and  _119
REMARK   53  A    between atoms: _119  and  _120
REMARK   54  A    between atoms: _122  and  _124
REMARK   55  A    between atoms: _124  and  _125
REMARK   56  A    between atoms: _124  and  _127
REMARK   57  A    between atoms: _127  and  _128
REMARK   58  A    between atoms: _131  and  _133
REMARK   59  A    between atoms: _133  and  _134
REMARK   60  A    between atoms: _136  and  _138
REMARK   61  A    between atoms: _138  and  _139
REMARK   62  A    between atoms: _141  and  _143
REMARK   63  A    between atoms: _143  and  _144
REMARK   64  A    between atoms: _143  and  _146
REMARK   65  A    between atoms: _146  and  _147
REMARK   66  A    between atoms: _150  and  _152
REMARK   67  A    between atoms: _152  and  _153
REMARK   68  A    between atoms: _155  and  _157
REMARK   69  A    between atoms: _157  and  _158
REMARK   70  A    between atoms: _160  and  _162
REMARK   71  A    between atoms: _162  and  _163
REMARK   72  A    between atoms: _162  and  _165
REMARK   73  A    between atoms: _165  and  _166
REMARK   74  A    between atoms: _172  and  _174
REMARK   75  A    between atoms: _174  and  _175
REMARK   76  A    between atoms: _174  and  _177
REMARK   77  A    between atoms: _177  and  _178
REMARK   78  A    between atoms: _181  and  _183
REMARK   79  A    between atoms: _183  and  _184
REMARK   80  A    between atoms: _183  and  _186
REMARK   81  A    between atoms: _189  and  _191
REMARK   82  A    between atoms: _191  and  _192
REMARK   83  A    between atoms: _191  and  _194
REMARK   84  A    between atoms: _194  and  _195
REMARK   85  A    between atoms: _199  and  _200
REMARK   86  A    between atoms: _205  and  _207
REMARK   87  A    between atoms: _207  and  _208
REMARK   88  A    between atoms: _207  and  _210
REMARK   89  A    between atoms: _210  and  _211
REMARK   90  A    between atoms: _215  and  _216
REMARK   91  A    between atoms: _221  and  _223
REMARK   92  A    between atoms: _223  and  _224
REMARK   93  A    between atoms: _223  and  _226
REMARK   94  A    between atoms: _229  and  _231
REMARK   95  A    between atoms: _231  and  _232
REMARK   96  A    between atoms: _231  and  _234
REMARK   97  A    between atoms: _234  and  _235
REMARK   98  A    between atoms: _240  and  _242
REMARK   99  A    between atoms: _242  and  _243
REMARK  100  A    between atoms: _242  and  _245
REMARK  101  A    between atoms: _245  and  _246
REMARK  102  A    between atoms: _249  and  _251
REMARK  103  A    between atoms: _251  and  _252
REMARK  104  A    between atoms: _251  and  _254
REMARK  105  A    between atoms: _254  and  _255
REMARK  106  A    between atoms: _258  and  _260
REMARK  107  A    between atoms: _260  and  _261
REMARK  108  A    between atoms: _263  and  _265
REMARK  109  A    between atoms: _265  and  _266
REMARK  110  A    between atoms: _265  and  _268
REMARK  111  A    between atoms: _268  and  _269
REMARK  112  A    between atoms: _269  and  _270
REMARK  113  A    between atoms: _270  and  _271
REMARK  114  A    between atoms: _280  and  _282
REMARK  115  A    between atoms: _282  and  _283
REMARK  116  A    between atoms: _282  and  _285
REMARK  117  A    between atoms: _285  and  _286
REMARK  118  A    between atoms: _291  and  _293
REMARK  119  A    between atoms: _293  and  _294
REMARK  120  A    between atoms: _293  and  _296
REMARK  121  A    between atoms: _296  and  _297
REMARK  122  A    between atoms: _297  and  _298
REMARK  123  A    between atoms: _298  and  _299
REMARK  124  A    between atoms: _308  and  _310
REMARK  125  A    between atoms: _310  and  _311
REMARK  126  A    between atoms: _310  and  _313
REMARK  127  A    between atoms: _313  and  _314
REMARK  128  A    between atoms: _317  and  _319
REMARK  129  A    between atoms: _319  and  _320
REMARK  130  A    between atoms: _319  and  _322
REMARK  131  A    between atoms: _322  and  _323
REMARK  132  A    between atoms: _326  and  _328
REMARK  133  A    between atoms: _328  and  _329
REMARK  134  A    between atoms: _328  and  _331
REMARK  135  A    between atoms: _331  and  _332
REMARK  136  A    between atoms: _335  and  _337
REMARK  137  A    between atoms: _337  and  _338
REMARK  138  A    between atoms: _337  and  _340
REMARK  139  A    between atoms: _340  and  _341
REMARK  140  A    between atoms: _344  and  _346
REMARK  141  A    between atoms: _346  and  _347
REMARK  142  A    between atoms: _349  and  _351
REMARK  143  A    between atoms: _351  and  _352
REMARK  144  A    between atoms: _355  and  _357
REMARK  145  A    between atoms: _357  and  _358
REMARK  146  A    between atoms: _357  and  _360
REMARK  147  A    between atoms: _360  and  _361
REMARK  148  A    between atoms: _364  and  _366
REMARK  149  A    between atoms: _366  and  _367
REMARK  150  A    between atoms: _366  and  _369
REMARK  151  A    between atoms: _369  and  _370
REMARK  152  A    between atoms: _373  and  _375
REMARK  153  A    between atoms: _375  and  _376
REMARK  154  A    between atoms: _375  and  _378
REMARK  155  A    between atoms: _378  and  _379
REMARK  156  A    between atoms: _382  and  _384
REMARK  157  A    between atoms: _384  and  _385
REMARK  158  A    between atoms: _384  and  _387
REMARK  159  A    between atoms: _390  and  _392
REMARK  160  A    between atoms: _392  and  _393
REMARK  161  A    between atoms: _392  and  _395
REMARK  162  A    between atoms: _395  and  _396
REMARK  163  A    between atoms: _399  and  _401
REMARK  164  A    between atoms: _401  and  _402
REMARK  165  A    between atoms: _401  and  _404
REMARK  166  A    between atoms: _404  and  _405
REMARK  167  A    between atoms: _405  and  _406
REMARK  168  A    between atoms: _406  and  _407
REMARK  169  A    between atoms: _407  and  _408
REMARK  170  A    between atoms: _412  and  _414
REMARK  171  A    between atoms: _414  and  _415
REMARK  172  A    between atoms: _414  and  _417
REMARK  173  A    between atoms: _417  and  _418
REMARK  174  A    between atoms: _418  and  _419
REMARK  175  A    between atoms: _421  and  _423
REMARK  176  A    between atoms: _423  and  _424
REMARK  177  A    between atoms: _423  and  _426
REMARK  178  A    between atoms: _426  and  _427
REMARK  179  A    between atoms: _430  and  _432
REMARK  180  A    between atoms: _432  and  _433
REMARK  181  A    between atoms: _435  and  _437
REMARK  182  A    between atoms: _437  and  _438
REMARK  183  A    between atoms: _440  and  _442
REMARK  184  A    between atoms: _442  and  _443
REMARK  185  A    between atoms: _442  and  _445
REMARK  186  A    between atoms: _445  and  _446
REMARK  187  A    between atoms: _449  and  _451
REMARK  188  A    between atoms: _451  and  _452
REMARK  189  A    between atoms: _454  and  _456
REMARK  190  A    between atoms: _456  and  _457
REMARK  191  A    between atoms: _459  and  _461
REMARK  192  A    between atoms: _461  and  _462
REMARK  193  A    between atoms: _461  and  _464
REMARK  194  A    between atoms: _464  and  _465
REMARK  195  A    between atoms: _468  and  _470
REMARK  196  A    between atoms: _470  and  _471
REMARK  197  A    between atoms: _470  and  _473
REMARK  198  A    between atoms: _476  and  _478
REMARK  199  A    between atoms: _478  and  _479
REMARK  200  A    between atoms: _478  and  _481
REMARK  201  A    between atoms: _481  and  _482
REMARK  202  A    between atoms: _486  and  _487
REMARK  203  A    between atoms: _492  and  _494
REMARK  204  A    between atoms: _494  and  _495
REMARK  205  A    between atoms: _494  and  _497
REMARK  206  A    between atoms: _497  and  _498
REMARK  207  A    between atoms: _502  and  _503
REMARK  208  A    between atoms: _508  and  _510
REMARK  209  A    between atoms: _510  and  _511
REMARK  210  A    between atoms: _510  and  _513
REMARK  211  A    between atoms: _516  and  _518
REMARK  212  A    between atoms: _518  and  _519
REMARK  213  A    between atoms: _518  and  _521
REMARK  214  A    between atoms: _521  and  _522
REMARK  215  A    between atoms: _527  and  _529
REMARK  216  A    between atoms: _529  and  _530
REMARK  217  A    between atoms: _529  and  _532
REMARK  218  A    between atoms: _532  and  _533
REMARK  219  A    between atoms: _536  and  _538
REMARK  220  A    between atoms: _538  and  _539
REMARK  221  A    between atoms: _538  and  _541
REMARK  222  A    between atoms: _541  and  _542
REMARK  223  A    between atoms: _545  and  _547
REMARK  224  A    between atoms: _547  and  _548
REMARK  225  A    between atoms: _550  and  _552
REMARK  226  A    between atoms: _552  and  _553
REMARK  227  A    between atoms: _552  and  _555
REMARK  228  A    between atoms: _555  and  _556
REMARK  229  A    between atoms: _556  and  _557
REMARK  230  A    between atoms: _557  and  _558
REMARK  231  A    between atoms: _567  and  _569
REMARK  232  A    between atoms: _569  and  _570
REMARK  233  A    between atoms: _569  and  _572
REMARK  234  A    between atoms: _572  and  _573
REMARK                            x       y       z     vdW  Elec       q    Type
REMARK                         _______ _______ _______ _____ _____    ______ ____
ROOT
ATOM      1  O   HOH     1      -5.425  15.114 -25.462  0.00  0.00    +0.000 OA
ENDROOT
TORSDOF 0
REMARK  Name = ../refined-set-2016/3bgc/3bgc_pocket.pdb
REMARK  234 active torsions:
REMARK  status: ('A' for Active; 'I' for Inactive)
REMARK    1  A    between atoms: _1  and  _3
REMARK    2  A    between atoms: _3  and  _4
REMARK    3  A    between atoms: _3  and  _6
REMARK    4  A    between atoms: _6  and  _7
REMARK    5  A    between atoms: _7  and  _8
REMARK    6  A    between atoms: _8  and  _9
REMARK    7  A    between atoms: _18  and  _20
REMARK    8  A    between atoms: _20  and  _21
REMARK    9  A    between atoms: _20  and  _23
REMARK   10  A    between atoms: _23  and  _24
REMARK   11  A    between atoms: _27  and  _29
REMARK   12  A    between atoms: _29  and  _30
REMARK   13  A    between atoms: _29  and  _32
REMARK   14  A    between atoms: _32  and  _33
REMARK   15  A    between atoms: _36  and  _38
REMARK   16  A    between atoms: _38  and  _39
REMARK   17  A    between atoms: _38  and  _41
REMARK   18  A    between atoms: _41  and  _42
REMARK   19  A    between atoms: _45  and  _47
REMARK   20  A    between atoms: _47  and  _48
REMARK   21  A    between atoms: _50  and  _52
REMARK   22  A    between atoms: _52  and  _53
REMARK   23  A    between atoms: _56  and  _58
REMARK   24  A    between atoms: _58  and  _59
REMARK   25  A    between atoms: _58  and  _61
REMARK   26  A    between atoms: _61  and  _62
REMARK   27  A    between atoms: _65  and  _67
REMARK   28  A    between atoms: _67  and  _68
REMARK   29  A    between atoms: _67  and  _70
REMARK   30  A    between atoms: _70  and  _71
REMARK   31  A    between atoms: _74  and  _76
REMARK   32  A    between atoms: _76  and  _77
REMARK   33  A    between atoms: _76  and  _79
REMARK   34  A    between atoms: _79  and  _80
REMARK   35  A    between atoms: _83  and  _85
REMARK   36  A    between atoms: _85  and  _86
REMARK   37  A    between atoms: _85  and  _88
REMARK   38  A    between atoms: _91  and  _93
REMARK   39  A    between atoms: _93  and  _94
REMARK   40  A    between atoms: _93  and  _96
REMARK   41  A    between atoms: _96  and  _97
REMARK   42  A    between atoms: _100  and  _102
REMARK   43  A    between atoms: _102  and  _103
REMARK   44  A    between atoms: _102  and  _105
REMARK   45  A    between atoms: _105  and  _106
REMARK   46  A    between atoms: _106  and  _107
REMARK   47  A    between atoms: _107  and  _108
REMARK   48  A    between atoms: _108  and  _109
REMARK   49  A    between atoms: _113  and  _115
REMARK   50  A    between atoms: _115  and  _116
REMARK   51  A    between atoms: _115  and  _118
REMARK   52  A    between atoms: _118  and  _119
REMARK   53  A    between atoms: _119  and  _120
REMARK   54  A    between atoms: _122  and  _124
REMARK   55  A    between atoms: _124  and  _125
REMARK   56  A    between atoms: _124  and  _127
REMARK   57  A    between atoms: _127  and  _128
REMARK   58  A    between atoms: _131  and  _133
REMARK   59  A    between atoms: _133  and  _134
REMARK   60  A    between atoms: _136  and  _138
REMARK   61  A    between atoms: _138  and  _139
REMARK   62  A    between atoms: _141  and  _143
REMARK   63  A    between atoms: _143  and  _144
REMARK   64  A    between atoms: _143  and  _146
REMARK   65  A    between atoms: _146  and  _147
REMARK   66  A    between atoms: _150  and  _152
REMARK   67  A    between atoms: _152  and  _153
REMARK   68  A    between atoms: _155  and  _157
REMARK   69  A    between atoms: _157  and  _158
REMARK   70  A    between atoms: _160  and  _162
REMARK   71  A    between atoms: _162  and  _163
REMARK   72  A    between atoms: _162  and  _165
REMARK   73  A    between atoms: _165  and  _166
REMARK   74  A    between atoms: _172  and  _174
REMARK   75  A    between atoms: _174  and  _175
REMARK   76  A    between atoms: _174  and  _177
REMARK   77  A    between atoms: _177  and  _178
REMARK   78  A    between atoms: _181  and  _183
REMARK   79  A    between atoms: _183  and  _184
REMARK   80  A    between atoms: _183  and  _186
REMARK   81  A    between atoms: _189  and  _191
REMARK   82  A    between atoms: _191  and  _192
REMARK   83  A    between atoms: _191  and  _194
REMARK   84  A    between atoms: _194  and  _195
REMARK   85  A    between atoms: _199  and  _200
REMARK   86  A    between atoms: _205  and  _207
REMARK   87  A    between atoms: _207  and  _208
REMARK   88  A    between atoms: _207  and  _210
REMARK   89  A    between atoms: _210  and  _211
REMARK   90  A    between atoms: _215  and  _216
REMARK   91  A    between atoms: _221  and  _223
REMARK   92  A    between atoms: _223  and  _224
REMARK   93  A    between atoms: _223  and  _226
REMARK   94  A    between atoms: _229  and  _231
REMARK   95  A    between atoms: _231  and  _232
REMARK   96  A    between atoms: _231  and  _234
REMARK   97  A    between atoms: _234  and  _235
REMARK   98  A    between atoms: _240  and  _242
REMARK   99  A    between atoms: _242  and  _243
REMARK  100  A    between atoms: _242  and  _245
REMARK  101  A    between atoms: _245  and  _246
REMARK  102  A    between atoms: _249  and  _251
REMARK  103  A    between atoms: _251  and  _252
REMARK  104  A    between atoms: _251  and  _254
REMARK  105  A    between atoms: _254  and  _255
REMARK  106  A    between atoms: _258  and  _260
REMARK  107  A    between atoms: _260  and  _261
REMARK  108  A    between atoms: _263  and  _265
REMARK  109  A    between atoms: _265  and  _266
REMARK  110  A    between atoms: _265  and  _268
REMARK  111  A    between atoms: _268  and  _269
REMARK  112  A    between atoms: _269  and  _270
REMARK  113  A    between atoms: _270  and  _271
REMARK  114  A    between atoms: _280  and  _282
REMARK  115  A    between atoms: _282  and  _283
REMARK  116  A    between atoms: _282  and  _285
REMARK  117  A    between atoms: _285  and  _286
REMARK  118  A    between atoms: _291  and  _293
REMARK  119  A    between atoms: _293  and  _294
REMARK  120  A    between atoms: _293  and  _296
REMARK  121  A    between atoms: _296  and  _297
REMARK  122  A    between atoms: _297  and  _298
REMARK  123  A    between atoms: _298  and  _299
REMARK  124  A    between atoms: _308  and  _310
REMARK  125  A    between atoms: _310  and  _311
REMARK  126  A    between atoms: _310  and  _313
REMARK  127  A    between atoms: _313  and  _314
REMARK  128  A    between atoms: _317  and  _319
REMARK  129  A    between atoms: _319  and  _320
REMARK  130  A    between atoms: _319  and  _322
REMARK  131  A    between atoms: _322  and  _323
REMARK  132  A    between atoms: _326  and  _328
REMARK  133  A    between atoms: _328  and  _329
REMARK  134  A    between atoms: _328  and  _331
REMARK  135  A    between atoms: _331  and  _332
REMARK  136  A    between atoms: _335  and  _337
REMARK  137  A    between atoms: _337  and  _338
REMARK  138  A    between atoms: _337  and  _340
REMARK  139  A    between atoms: _340  and  _341
REMARK  140  A    between atoms: _344  and  _346
REMARK  141  A    between atoms: _346  and  _347
REMARK  142  A    between atoms: _349  and  _351
REMARK  143  A    between atoms: _351  and  _352
REMARK  144  A    between atoms: _355  and  _357
REMARK  145  A    between atoms: _357  and  _358
REMARK  146  A    between atoms: _357  and  _360
REMARK  147  A    between atoms: _360  and  _361
REMARK  148  A    between atoms: _364  and  _366
REMARK  149  A    between atoms: _366  and  _367
REMARK  150  A    between atoms: _366  and  _369
REMARK  151  A    between atoms: _369  and  _370
REMARK  152  A    between atoms: _373  and  _375
REMARK  153  A    between atoms: _375  and  _376
REMARK  154  A    between atoms: _375  and  _378
REMARK  155  A    between atoms: _378  and  _379
REMARK  156  A    between atoms: _382  and  _384
REMARK  157  A    between atoms: _384  and  _385
REMARK  158  A    between atoms: _384  and  _387
REMARK  159  A    between atoms: _390  and  _392
REMARK  160  A    between atoms: _392  and  _393
REMARK  161  A    between atoms: _392  and  _395
REMARK  162  A    between atoms: _395  and  _396
REMARK  163  A    between atoms: _399  and  _401
REMARK  164  A    between atoms: _401  and  _402
REMARK  165  A    between atoms: _401  and  _404
REMARK  166  A    between atoms: _404  and  _405
REMARK  167  A    between atoms: _405  and  _406
REMARK  168  A    between atoms: _406  and  _407
REMARK  169  A    between atoms: _407  and  _408
REMARK  170  A    between atoms: _412  and  _414
REMARK  171  A    between atoms: _414  and  _415
REMARK  172  A    between atoms: _414  and  _417
REMARK  173  A    between atoms: _417  and  _418
REMARK  174  A    between atoms: _418  and  _419
REMARK  175  A    between atoms: _421  and  _423
REMARK  176  A    between atoms: _423  and  _424
REMARK  177  A    between atoms: _423  and  _426
REMARK  178  A    between atoms: _426  and  _427
REMARK  179  A    between atoms: _430  and  _432
REMARK  180  A    between atoms: _432  and  _433
REMARK  181  A    between atoms: _435  and  _437
REMARK  182  A    between atoms: _437  and  _438
REMARK  183  A    between atoms: _440  and  _442
REMARK  184  A    between atoms: _442  and  _443
REMARK  185  A    between atoms: _442  and  _445
REMARK  186  A    between atoms: _445  and  _446
REMARK  187  A    between atoms: _449  and  _451
REMARK  188  A    between atoms: _451  and  _452
REMARK  189  A    between atoms: _454  and  _456
REMARK  190  A    between atoms: _456  and  _457
REMARK  191  A    between atoms: _459  and  _461
REMARK  192  A    between atoms: _461  and  _462
REMARK  193  A    between atoms: _461  and  _464
REMARK  194  A    between atoms: _464  and  _465
REMARK  195  A    between atoms: _468  and  _470
REMARK  196  A    between atoms: _470  and  _471
REMARK  197  A    between atoms: _470  and  _473
REMARK  198  A    between atoms: _476  and  _478
REMARK  199  A    between atoms: _478  and  _479
REMARK  200  A    between atoms: _478  and  _481
REMARK  201  A    between atoms: _481  and  _482
REMARK  202  A    between atoms: _486  and  _487
REMARK  203  A    between atoms: _492  and  _494
REMARK  204  A    between atoms: _494  and  _495
REMARK  205  A    between atoms: _494  and  _497
REMARK  206  A    between atoms: _497  and  _498
REMARK  207  A    between atoms: _502  and  _503
REMARK  208  A    between atoms: _508  and  _510
REMARK  209  A    between atoms: _510  and  _511
REMARK  210  A    between atoms: _510  and  _513
REMARK  211  A    between atoms: _516  and  _518
REMARK  212  A    between atoms: _518  and  _519
REMARK  213  A    between atoms: _518  and  _521
REMARK  214  A    between atoms: _521  and  _522
REMARK  215  A    between atoms: _527  and  _529
REMARK  216  A    between atoms: _529  and  _530
REMARK  217  A    between atoms: _529  and  _532
REMARK  218  A    between atoms: _532  and  _533
REMARK  219  A    between atoms: _536  and  _538
REMARK  220  A    between atoms: _538  and  _539
REMARK  221  A    between atoms: _538  and  _541
REMARK  222  A    between atoms: _541  and  _542
REMARK  223  A    between atoms: _545  and  _547
REMARK  224  A    between atoms: _547  and  _548
REMARK  225  A    between atoms: _550  and  _552
REMARK  226  A    between atoms: _552  and  _553
REMARK  227  A    between atoms: _552  and  _555
REMARK  228  A    between atoms: _555  and  _556
REMARK  229  A    between atoms: _556  and  _557
REMARK  230  A    between atoms: _557  and  _558
REMARK  231  A    between atoms: _567  and  _569
REMARK  232  A    between atoms: _569  and  _570
REMARK  233  A    between atoms: _569  and  _572
REMARK  234  A    between atoms: _572  and  _573
REMARK                            x       y       z     vdW  Elec       q    Type
REMARK                         _______ _______ _______ _____ _____    ______ ____
ROOT
ATOM      1  O   HOH     1     -14.010  27.338 -11.851  0.00  0.00    +0.000 OA
ENDROOT
TORSDOF 0
REMARK  Name = ../refined-set-2016/3bgc/3bgc_pocket.pdb
REMARK  234 active torsions:
REMARK  status: ('A' for Active; 'I' for Inactive)
REMARK    1  A    between atoms: _1  and  _3
REMARK    2  A    between atoms: _3  and  _4
REMARK    3  A    between atoms: _3  and  _6
REMARK    4  A    between atoms: _6  and  _7
REMARK    5  A    between atoms: _7  and  _8
REMARK    6  A    between atoms: _8  and  _9
REMARK    7  A    between atoms: _18  and  _20
REMARK    8  A    between atoms: _20  and  _21
REMARK    9  A    between atoms: _20  and  _23
REMARK   10  A    between atoms: _23  and  _24
REMARK   11  A    between atoms: _27  and  _29
REMARK   12  A    between atoms: _29  and  _30
REMARK   13  A    between atoms: _29  and  _32
REMARK   14  A    between atoms: _32  and  _33
REMARK   15  A    between atoms: _36  and  _38
REMARK   16  A    between atoms: _38  and  _39
REMARK   17  A    between atoms: _38  and  _41
REMARK   18  A    between atoms: _41  and  _42
REMARK   19  A    between atoms: _45  and  _47
REMARK   20  A    between atoms: _47  and  _48
REMARK   21  A    between atoms: _50  and  _52
REMARK   22  A    between atoms: _52  and  _53
REMARK   23  A    between atoms: _56  and  _58
REMARK   24  A    between atoms: _58  and  _59
REMARK   25  A    between atoms: _58  and  _61
REMARK   26  A    between atoms: _61  and  _62
REMARK   27  A    between atoms: _65  and  _67
REMARK   28  A    between atoms: _67  and  _68
REMARK   29  A    between atoms: _67  and  _70
REMARK   30  A    between atoms: _70  and  _71
REMARK   31  A    between atoms: _74  and  _76
REMARK   32  A    between atoms: _76  and  _77
REMARK   33  A    between atoms: _76  and  _79
REMARK   34  A    between atoms: _79  and  _80
REMARK   35  A    between atoms: _83  and  _85
REMARK   36  A    between atoms: _85  and  _86
REMARK   37  A    between atoms: _85  and  _88
REMARK   38  A    between atoms: _91  and  _93
REMARK   39  A    between atoms: _93  and  _94
REMARK   40  A    between atoms: _93  and  _96
REMARK   41  A    between atoms: _96  and  _97
REMARK   42  A    between atoms: _100  and  _102
REMARK   43  A    between atoms: _102  and  _103
REMARK   44  A    between atoms: _102  and  _105
REMARK   45  A    between atoms: _105  and  _106
REMARK   46  A    between atoms: _106  and  _107
REMARK   47  A    between atoms: _107  and  _108
REMARK   48  A    between atoms: _108  and  _109
REMARK   49  A    between atoms: _113  and  _115
REMARK   50  A    between atoms: _115  and  _116
REMARK   51  A    between atoms: _115  and  _118
REMARK   52  A    between atoms: _118  and  _119
REMARK   53  A    between atoms: _119  and  _120
REMARK   54  A    between atoms: _122  and  _124
REMARK   55  A    between atoms: _124  and  _125
REMARK   56  A    between atoms: _124  and  _127
REMARK   57  A    between atoms: _127  and  _128
REMARK   58  A    between atoms: _131  and  _133
REMARK   59  A    between atoms: _133  and  _134
REMARK   60  A    between atoms: _136  and  _138
REMARK   61  A    between atoms: _138  and  _139
REMARK   62  A    between atoms: _141  and  _143
REMARK   63  A    between atoms: _143  and  _144
REMARK   64  A    between atoms: _143  and  _146
REMARK   65  A    between atoms: _146  and  _147
REMARK   66  A    between atoms: _150  and  _152
REMARK   67  A    between atoms: _152  and  _153
REMARK   68  A    between atoms: _155  and  _157
REMARK   69  A    between atoms: _157  and  _158
REMARK   70  A    between atoms: _160  and  _162
REMARK   71  A    between atoms: _162  and  _163
REMARK   72  A    between atoms: _162  and  _165
REMARK   73  A    between atoms: _165  and  _166
REMARK   74  A    between atoms: _172  and  _174
REMARK   75  A    between atoms: _174  and  _175
REMARK   76  A    between atoms: _174  and  _177
REMARK   77  A    between atoms: _177  and  _178
REMARK   78  A    between atoms: _181  and  _183
REMARK   79  A    between atoms: _183  and  _184
REMARK   80  A    between atoms: _183  and  _186
REMARK   81  A    between atoms: _189  and  _191
REMARK   82  A    between atoms: _191  and  _192
REMARK   83  A    between atoms: _191  and  _194
REMARK   84  A    between atoms: _194  and  _195
REMARK   85  A    between atoms: _199  and  _200
REMARK   86  A    between atoms: _205  and  _207
REMARK   87  A    between atoms: _207  and  _208
REMARK   88  A    between atoms: _207  and  _210
REMARK   89  A    between atoms: _210  and  _211
REMARK   90  A    between atoms: _215  and  _216
REMARK   91  A    between atoms: _221  and  _223
REMARK   92  A    between atoms: _223  and  _224
REMARK   93  A    between atoms: _223  and  _226
REMARK   94  A    between atoms: _229  and  _231
REMARK   95  A    between atoms: _231  and  _232
REMARK   96  A    between atoms: _231  and  _234
REMARK   97  A    between atoms: _234  and  _235
REMARK   98  A    between atoms: _240  and  _242
REMARK   99  A    between atoms: _242  and  _243
REMARK  100  A    between atoms: _242  and  _245
REMARK  101  A    between atoms: _245  and  _246
REMARK  102  A    between atoms: _249  and  _251
REMARK  103  A    between atoms: _251  and  _252
REMARK  104  A    between atoms: _251  and  _254
REMARK  105  A    between atoms: _254  and  _255
REMARK  106  A    between atoms: _258  and  _260
REMARK  107  A    between atoms: _260  and  _261
REMARK  108  A    between atoms: _263  and  _265
REMARK  109  A    between atoms: _265  and  _266
REMARK  110  A    between atoms: _265  and  _268
REMARK  111  A    between atoms: _268  and  _269
REMARK  112  A    between atoms: _269  and  _270
REMARK  113  A    between atoms: _270  and  _271
REMARK  114  A    between atoms: _280  and  _282
REMARK  115  A    between atoms: _282  and  _283
REMARK  116  A    between atoms: _282  and  _285
REMARK  117  A    between atoms: _285  and  _286
REMARK  118  A    between atoms: _291  and  _293
REMARK  119  A    between atoms: _293  and  _294
REMARK  120  A    between atoms: _293  and  _296
REMARK  121  A    between atoms: _296  and  _297
REMARK  122  A    between atoms: _297  and  _298
REMARK  123  A    between atoms: _298  and  _299
REMARK  124  A    between atoms: _308  and  _310
REMARK  125  A    between atoms: _310  and  _311
REMARK  126  A    between atoms: _310  and  _313
REMARK  127  A    between atoms: _313  and  _314
REMARK  128  A    between atoms: _317  and  _319
REMARK  129  A    between atoms: _319  and  _320
REMARK  130  A    between atoms: _319  and  _322
REMARK  131  A    between atoms: _322  and  _323
REMARK  132  A    between atoms: _326  and  _328
REMARK  133  A    between atoms: _328  and  _329
REMARK  134  A    between atoms: _328  and  _331
REMARK  135  A    between atoms: _331  and  _332
REMARK  136  A    between atoms: _335  and  _337
REMARK  137  A    between atoms: _337  and  _338
REMARK  138  A    between atoms: _337  and  _340
REMARK  139  A    between atoms: _340  and  _341
REMARK  140  A    between atoms: _344  and  _346
REMARK  141  A    between atoms: _346  and  _347
REMARK  142  A    between atoms: _349  and  _351
REMARK  143  A    between atoms: _351  and  _352
REMARK  144  A    between atoms: _355  and  _357
REMARK  145  A    between atoms: _357  and  _358
REMARK  146  A    between atoms: _357  and  _360
REMARK  147  A    between atoms: _360  and  _361
REMARK  148  A    between atoms: _364  and  _366
REMARK  149  A    between atoms: _366  and  _367
REMARK  150  A    between atoms: _366  and  _369
REMARK  151  A    between atoms: _369  and  _370
REMARK  152  A    between atoms: _373  and  _375
REMARK  153  A    between atoms: _375  and  _376
REMARK  154  A    between atoms: _375  and  _378
REMARK  155  A    between atoms: _378  and  _379
REMARK  156  A    between atoms: _382  and  _384
REMARK  157  A    between atoms: _384  and  _385
REMARK  158  A    between atoms: _384  and  _387
REMARK  159  A    between atoms: _390  and  _392
REMARK  160  A    between atoms: _392  and  _393
REMARK  161  A    between atoms: _392  and  _395
REMARK  162  A    between atoms: _395  and  _396
REMARK  163  A    between atoms: _399  and  _401
REMARK  164  A    between atoms: _401  and  _402
REMARK  165  A    between atoms: _401  and  _404
REMARK  166  A    between atoms: _404  and  _405
REMARK  167  A    between atoms: _405  and  _406
REMARK  168  A    between atoms: _406  and  _407
REMARK  169  A    between atoms: _407  and  _408
REMARK  170  A    between atoms: _412  and  _414
REMARK  171  A    between atoms: _414  and  _415
REMARK  172  A    between atoms: _414  and  _417
REMARK  173  A    between atoms: _417  and  _418
REMARK  174  A    between atoms: _418  and  _419
REMARK  175  A    between atoms: _421  and  _423
REMARK  176  A    between atoms: _423  and  _424
REMARK  177  A    between atoms: _423  and  _426
REMARK  178  A    between atoms: _426  and  _427
REMARK  179  A    between atoms: _430  and  _432
REMARK  180  A    between atoms: _432  and  _433
REMARK  181  A    between atoms: _435  and  _437
REMARK  182  A    between atoms: _437  and  _438
REMARK  183  A    between atoms: _440  and  _442
REMARK  184  A    between atoms: _442  and  _443
REMARK  185  A    between atoms: _442  and  _445
REMARK  186  A    between atoms: _445  and  _446
REMARK  187  A    between atoms: _449  and  _451
REMARK  188  A    between atoms: _451  and  _452
REMARK  189  A    between atoms: _454  and  _456
REMARK  190  A    between atoms: _456  and  _457
REMARK  191  A    between atoms: _459  and  _461
REMARK  192  A    between atoms: _461  and  _462
REMARK  193  A    between atoms: _461  and  _464
REMARK  194  A    between atoms: _464  and  _465
REMARK  195  A    between atoms: _468  and  _470
REMARK  196  A    between atoms: _470  and  _471
REMARK  197  A    between atoms: _470  and  _473
REMARK  198  A    between atoms: _476  and  _478
REMARK  199  A    between atoms: _478  and  _479
REMARK  200  A    between atoms: _478  and  _481
REMARK  201  A    between atoms: _481  and  _482
REMARK  202  A    between atoms: _486  and  _487
REMARK  203  A    between atoms: _492  and  _494
REMARK  204  A    between atoms: _494  and  _495
REMARK  205  A    between atoms: _494  and  _497
REMARK  206  A    between atoms: _497  and  _498
REMARK  207  A    between atoms: _502  and  _503
REMARK  208  A    between atoms: _508  and  _510
REMARK  209  A    between atoms: _510  and  _511
REMARK  210  A    between atoms: _510  and  _513
REMARK  211  A    between atoms: _516  and  _518
REMARK  212  A    between atoms: _518  and  _519
REMARK  213  A    between atoms: _518  and  _521
REMARK  214  A    between atoms: _521  and  _522
REMARK  215  A    between atoms: _527  and  _529
REMARK  216  A    between atoms: _529  and  _530
REMARK  217  A    between atoms: _529  and  _532
REMARK  218  A    between atoms: _532  and  _533
REMARK  219  A    between atoms: _536  and  _538
REMARK  220  A    between atoms: _538  and  _539
REMARK  221  A    between atoms: _538  and  _541
REMARK  222  A    between atoms: _541  and  _542
REMARK  223  A    between atoms: _545  and  _547
REMARK  224  A    between atoms: _547  and  _548
REMARK  225  A    between atoms: _550  and  _552
REMARK  226  A    between atoms: _552  and  _553
REMARK  227  A    between atoms: _552  and  _555
REMARK  228  A    between atoms: _555  and  _556
REMARK  229  A    between atoms: _556  and  _557
REMARK  230  A    between atoms: _557  and  _558
REMARK  231  A    between atoms: _567  and  _569
REMARK  232  A    between atoms: _569  and  _570
REMARK  233  A    between atoms: _569  and  _572
REMARK  234  A    between atoms: _572  and  _573
REMARK                            x       y       z     vdW  Elec       q    Type
REMARK                         _______ _______ _______ _____ _____    ______ ____
ROOT
ATOM      1  O   HOH     1     -21.783  30.191 -24.816  0.00  0.00    +0.000 OA
ENDROOT
TORSDOF 0
REMARK  Name = ../refined-set-2016/3bgc/3bgc_pocket.pdb
REMARK  234 active torsions:
REMARK  status: ('A' for Active; 'I' for Inactive)
REMARK    1  A    between atoms: _1  and  _3
REMARK    2  A    between atoms: _3  and  _4
REMARK    3  A    between atoms: _3  and  _6
REMARK    4  A    between atoms: _6  and  _7
REMARK    5  A    between atoms: _7  and  _8
REMARK    6  A    between atoms: _8  and  _9
REMARK    7  A    between atoms: _18  and  _20
REMARK    8  A    between atoms: _20  and  _21
REMARK    9  A    between atoms: _20  and  _23
REMARK   10  A    between atoms: _23  and  _24
REMARK   11  A    between atoms: _27  and  _29
REMARK   12  A    between atoms: _29  and  _30
REMARK   13  A    between atoms: _29  and  _32
REMARK   14  A    between atoms: _32  and  _33
REMARK   15  A    between atoms: _36  and  _38
REMARK   16  A    between atoms: _38  and  _39
REMARK   17  A    between atoms: _38  and  _41
REMARK   18  A    between atoms: _41  and  _42
REMARK   19  A    between atoms: _45  and  _47
REMARK   20  A    between atoms: _47  and  _48
REMARK   21  A    between atoms: _50  and  _52
REMARK   22  A    between atoms: _52  and  _53
REMARK   23  A    between atoms: _56  and  _58
REMARK   24  A    between atoms: _58  and  _59
REMARK   25  A    between atoms: _58  and  _61
REMARK   26  A    between atoms: _61  and  _62
REMARK   27  A    between atoms: _65  and  _67
REMARK   28  A    between atoms: _67  and  _68
REMARK   29  A    between atoms: _67  and  _70
REMARK   30  A    between atoms: _70  and  _71
REMARK   31  A    between atoms: _74  and  _76
REMARK   32  A    between atoms: _76  and  _77
REMARK   33  A    between atoms: _76  and  _79
REMARK   34  A    between atoms: _79  and  _80
REMARK   35  A    between atoms: _83  and  _85
REMARK   36  A    between atoms: _85  and  _86
REMARK   37  A    between atoms: _85  and  _88
REMARK   38  A    between atoms: _91  and  _93
REMARK   39  A    between atoms: _93  and  _94
REMARK   40  A    between atoms: _93  and  _96
REMARK   41  A    between atoms: _96  and  _97
REMARK   42  A    between atoms: _100  and  _102
REMARK   43  A    between atoms: _102  and  _103
REMARK   44  A    between atoms: _102  and  _105
REMARK   45  A    between atoms: _105  and  _106
REMARK   46  A    between atoms: _106  and  _107
REMARK   47  A    between atoms: _107  and  _108
REMARK   48  A    between atoms: _108  and  _109
REMARK   49  A    between atoms: _113  and  _115
REMARK   50  A    between atoms: _115  and  _116
REMARK   51  A    between atoms: _115  and  _118
REMARK   52  A    between atoms: _118  and  _119
REMARK   53  A    between atoms: _119  and  _120
REMARK   54  A    between atoms: _122  and  _124
REMARK   55  A    between atoms: _124  and  _125
REMARK   56  A    between atoms: _124  and  _127
REMARK   57  A    between atoms: _127  and  _128
REMARK   58  A    between atoms: _131  and  _133
REMARK   59  A    between atoms: _133  and  _134
REMARK   60  A    between atoms: _136  and  _138
REMARK   61  A    between atoms: _138  and  _139
REMARK   62  A    between atoms: _141  and  _143
REMARK   63  A    between atoms: _143  and  _144
REMARK   64  A    between atoms: _143  and  _146
REMARK   65  A    between atoms: _146  and  _147
REMARK   66  A    between atoms: _150  and  _152
REMARK   67  A    between atoms: _152  and  _153
REMARK   68  A    between atoms: _155  and  _157
REMARK   69  A    between atoms: _157  and  _158
REMARK   70  A    between atoms: _160  and  _162
REMARK   71  A    between atoms: _162  and  _163
REMARK   72  A    between atoms: _162  and  _165
REMARK   73  A    between atoms: _165  and  _166
REMARK   74  A    between atoms: _172  and  _174
REMARK   75  A    between atoms: _174  and  _175
REMARK   76  A    between atoms: _174  and  _177
REMARK   77  A    between atoms: _177  and  _178
REMARK   78  A    between atoms: _181  and  _183
REMARK   79  A    between atoms: _183  and  _184
REMARK   80  A    between atoms: _183  and  _186
REMARK   81  A    between atoms: _189  and  _191
REMARK   82  A    between atoms: _191  and  _192
REMARK   83  A    between atoms: _191  and  _194
REMARK   84  A    between atoms: _194  and  _195
REMARK   85  A    between atoms: _199  and  _200
REMARK   86  A    between atoms: _205  and  _207
REMARK   87  A    between atoms: _207  and  _208
REMARK   88  A    between atoms: _207  and  _210
REMARK   89  A    between atoms: _210  and  _211
REMARK   90  A    between atoms: _215  and  _216
REMARK   91  A    between atoms: _221  and  _223
REMARK   92  A    between atoms: _223  and  _224
REMARK   93  A    between atoms: _223  and  _226
REMARK   94  A    between atoms: _229  and  _231
REMARK   95  A    between atoms: _231  and  _232
REMARK   96  A    between atoms: _231  and  _234
REMARK   97  A    between atoms: _234  and  _235
REMARK   98  A    between atoms: _240  and  _242
REMARK   99  A    between atoms: _242  and  _243
REMARK  100  A    between atoms: _242  and  _245
REMARK  101  A    between atoms: _245  and  _246
REMARK  102  A    between atoms: _249  and  _251
REMARK  103  A    between atoms: _251  and  _252
REMARK  104  A    between atoms: _251  and  _254
REMARK  105  A    between atoms: _254  and  _255
REMARK  106  A    between atoms: _258  and  _260
REMARK  107  A    between atoms: _260  and  _261
REMARK  108  A    between atoms: _263  and  _265
REMARK  109  A    between atoms: _265  and  _266
REMARK  110  A    between atoms: _265  and  _268
REMARK  111  A    between atoms: _268  and  _269
REMARK  112  A    between atoms: _269  and  _270
REMARK  113  A    between atoms: _270  and  _271
REMARK  114  A    between atoms: _280  and  _282
REMARK  115  A    between atoms: _282  and  _283
REMARK  116  A    between atoms: _282  and  _285
REMARK  117  A    between atoms: _285  and  _286
REMARK  118  A    between atoms: _291  and  _293
REMARK  119  A    between atoms: _293  and  _294
REMARK  120  A    between atoms: _293  and  _296
REMARK  121  A    between atoms: _296  and  _297
REMARK  122  A    between atoms: _297  and  _298
REMARK  123  A    between atoms: _298  and  _299
REMARK  124  A    between atoms: _308  and  _310
REMARK  125  A    between atoms: _310  and  _311
REMARK  126  A    between atoms: _310  and  _313
REMARK  127  A    between atoms: _313  and  _314
REMARK  128  A    between atoms: _317  and  _319
REMARK  129  A    between atoms: _319  and  _320
REMARK  130  A    between atoms: _319  and  _322
REMARK  131  A    between atoms: _322  and  _323
REMARK  132  A    between atoms: _326  and  _328
REMARK  133  A    between atoms: _328  and  _329
REMARK  134  A    between atoms: _328  and  _331
REMARK  135  A    between atoms: _331  and  _332
REMARK  136  A    between atoms: _335  and  _337
REMARK  137  A    between atoms: _337  and  _338
REMARK  138  A    between atoms: _337  and  _340
REMARK  139  A    between atoms: _340  and  _341
REMARK  140  A    between atoms: _344  and  _346
REMARK  141  A    between atoms: _346  and  _347
REMARK  142  A    between atoms: _349  and  _351
REMARK  143  A    between atoms: _351  and  _352
REMARK  144  A    between atoms: _355  and  _357
REMARK  145  A    between atoms: _357  and  _358
REMARK  146  A    between atoms: _357  and  _360
REMARK  147  A    between atoms: _360  and  _361
REMARK  148  A    between atoms: _364  and  _366
REMARK  149  A    between atoms: _366  and  _367
REMARK  150  A    between atoms: _366  and  _369
REMARK  151  A    between atoms: _369  and  _370
REMARK  152  A    between atoms: _373  and  _375
REMARK  153  A    between atoms: _375  and  _376
REMARK  154  A    between atoms: _375  and  _378
REMARK  155  A    between atoms: _378  and  _379
REMARK  156  A    between atoms: _382  and  _384
REMARK  157  A    between atoms: _384  and  _385
REMARK  158  A    between atoms: _384  and  _387
REMARK  159  A    between atoms: _390  and  _392
REMARK  160  A    between atoms: _392  and  _393
REMARK  161  A    between atoms: _392  and  _395
REMARK  162  A    between atoms: _395  and  _396
REMARK  163  A    between atoms: _399  and  _401
REMARK  164  A    between atoms: _401  and  _402
REMARK  165  A    between atoms: _401  and  _404
REMARK  166  A    between atoms: _404  and  _405
REMARK  167  A    between atoms: _405  and  _406
REMARK  168  A    between atoms: _406  and  _407
REMARK  169  A    between atoms: _407  and  _408
REMARK  170  A    between atoms: _412  and  _414
REMARK  171  A    between atoms: _414  and  _415
REMARK  172  A    between atoms: _414  and  _417
REMARK  173  A    between atoms: _417  and  _418
REMARK  174  A    between atoms: _418  and  _419
REMARK  175  A    between atoms: _421  and  _423
REMARK  176  A    between atoms: _423  and  _424
REMARK  177  A    between atoms: _423  and  _426
REMARK  178  A    between atoms: _426  and  _427
REMARK  179  A    between atoms: _430  and  _432
REMARK  180  A    between atoms: _432  and  _433
REMARK  181  A    between atoms: _435  and  _437
REMARK  182  A    between atoms: _437  and  _438
REMARK  183  A    between atoms: _440  and  _442
REMARK  184  A    between atoms: _442  and  _443
REMARK  185  A    between atoms: _442  and  _445
REMARK  186  A    between atoms: _445  and  _446
REMARK  187  A    between atoms: _449  and  _451
REMARK  188  A    between atoms: _451  and  _452
REMARK  189  A    between atoms: _454  and  _456
REMARK  190  A    between atoms: _456  and  _457
REMARK  191  A    between atoms: _459  and  _461
REMARK  192  A    between atoms: _461  and  _462
REMARK  193  A    between atoms: _461  and  _464
REMARK  194  A    between atoms: _464  and  _465
REMARK  195  A    between atoms: _468  and  _470
REMARK  196  A    between atoms: _470  and  _471
REMARK  197  A    between atoms: _470  and  _473
REMARK  198  A    between atoms: _476  and  _478
REMARK  199  A    between atoms: _478  and  _479
REMARK  200  A    between atoms: _478  and  _481
REMARK  201  A    between atoms: _481  and  _482
REMARK  202  A    between atoms: _486  and  _487
REMARK  203  A    between atoms: _492  and  _494
REMARK  204  A    between atoms: _494  and  _495
REMARK  205  A    between atoms: _494  and  _497
REMARK  206  A    between atoms: _497  and  _498
REMARK  207  A    between atoms: _502  and  _503
REMARK  208  A    between atoms: _508  and  _510
REMARK  209  A    between atoms: _510  and  _511
REMARK  210  A    between atoms: _510  and  _513
REMARK  211  A    between atoms: _516  and  _518
REMARK  212  A    between atoms: _518  and  _519
REMARK  213  A    between atoms: _518  and  _521
REMARK  214  A    between atoms: _521  and  _522
REMARK  215  A    between atoms: _527  and  _529
REMARK  216  A    between atoms: _529  and  _530
REMARK  217  A    between atoms: _529  and  _532
REMARK  218  A    between atoms: _532  and  _533
REMARK  219  A    between atoms: _536  and  _538
REMARK  220  A    between atoms: _538  and  _539
REMARK  221  A    between atoms: _538  and  _541
REMARK  222  A    between atoms: _541  and  _542
REMARK  223  A    between atoms: _545  and  _547
REMARK  224  A    between atoms: _547  and  _548
REMARK  225  A    between atoms: _550  and  _552
REMARK  226  A    between atoms: _552  and  _553
REMARK  227  A    between atoms: _552  and  _555
REMARK  228  A    between atoms: _555  and  _556
REMARK  229  A    between atoms: _556  and  _557
REMARK  230  A    between atoms: _557  and  _558
REMARK  231  A    between atoms: _567  and  _569
REMARK  232  A    between atoms: _569  and  _570
REMARK  233  A    between atoms: _569  and  _572
REMARK  234  A    between atoms: _572  and  _573
REMARK                            x       y       z     vdW  Elec       q    Type
REMARK                         _______ _______ _______ _____ _____    ______ ____
ROOT
ATOM      1  O   HOH     1     -18.665  23.212 -17.943  0.00  0.00    +0.000 OA
ENDROOT
TORSDOF 0
REMARK  Name = ../refined-set-2016/3bgc/3bgc_pocket.pdb
REMARK  234 active torsions:
REMARK  status: ('A' for Active; 'I' for Inactive)
REMARK    1  A    between atoms: _1  and  _3
REMARK    2  A    between atoms: _3  and  _4
REMARK    3  A    between atoms: _3  and  _6
REMARK    4  A    between atoms: _6  and  _7
REMARK    5  A    between atoms: _7  and  _8
REMARK    6  A    between atoms: _8  and  _9
REMARK    7  A    between atoms: _18  and  _20
REMARK    8  A    between atoms: _20  and  _21
REMARK    9  A    between atoms: _20  and  _23
REMARK   10  A    between atoms: _23  and  _24
REMARK   11  A    between atoms: _27  and  _29
REMARK   12  A    between atoms: _29  and  _30
REMARK   13  A    between atoms: _29  and  _32
REMARK   14  A    between atoms: _32  and  _33
REMARK   15  A    between atoms: _36  and  _38
REMARK   16  A    between atoms: _38  and  _39
REMARK   17  A    between atoms: _38  and  _41
REMARK   18  A    between atoms: _41  and  _42
REMARK   19  A    between atoms: _45  and  _47
REMARK   20  A    between atoms: _47  and  _48
REMARK   21  A    between atoms: _50  and  _52
REMARK   22  A    between atoms: _52  and  _53
REMARK   23  A    between atoms: _56  and  _58
REMARK   24  A    between atoms: _58  and  _59
REMARK   25  A    between atoms: _58  and  _61
REMARK   26  A    between atoms: _61  and  _62
REMARK   27  A    between atoms: _65  and  _67
REMARK   28  A    between atoms: _67  and  _68
REMARK   29  A    between atoms: _67  and  _70
REMARK   30  A    between atoms: _70  and  _71
REMARK   31  A    between atoms: _74  and  _76
REMARK   32  A    between atoms: _76  and  _77
REMARK   33  A    between atoms: _76  and  _79
REMARK   34  A    between atoms: _79  and  _80
REMARK   35  A    between atoms: _83  and  _85
REMARK   36  A    between atoms: _85  and  _86
REMARK   37  A    between atoms: _85  and  _88
REMARK   38  A    between atoms: _91  and  _93
REMARK   39  A    between atoms: _93  and  _94
REMARK   40  A    between atoms: _93  and  _96
REMARK   41  A    between atoms: _96  and  _97
REMARK   42  A    between atoms: _100  and  _102
REMARK   43  A    between atoms: _102  and  _103
REMARK   44  A    between atoms: _102  and  _105
REMARK   45  A    between atoms: _105  and  _106
REMARK   46  A    between atoms: _106  and  _107
REMARK   47  A    between atoms: _107  and  _108
REMARK   48  A    between atoms: _108  and  _109
REMARK   49  A    between atoms: _113  and  _115
REMARK   50  A    between atoms: _115  and  _116
REMARK   51  A    between atoms: _115  and  _118
REMARK   52  A    between atoms: _118  and  _119
REMARK   53  A    between atoms: _119  and  _120
REMARK   54  A    between atoms: _122  and  _124
REMARK   55  A    between atoms: _124  and  _125
REMARK   56  A    between atoms: _124  and  _127
REMARK   57  A    between atoms: _127  and  _128
REMARK   58  A    between atoms: _131  and  _133
REMARK   59  A    between atoms: _133  and  _134
REMARK   60  A    between atoms: _136  and  _138
REMARK   61  A    between atoms: _138  and  _139
REMARK   62  A    between atoms: _141  and  _143
REMARK   63  A    between atoms: _143  and  _144
REMARK   64  A    between atoms: _143  and  _146
REMARK   65  A    between atoms: _146  and  _147
REMARK   66  A    between atoms: _150  and  _152
REMARK   67  A    between atoms: _152  and  _153
REMARK   68  A    between atoms: _155  and  _157
REMARK   69  A    between atoms: _157  and  _158
REMARK   70  A    between atoms: _160  and  _162
REMARK   71  A    between atoms: _162  and  _163
REMARK   72  A    between atoms: _162  and  _165
REMARK   73  A    between atoms: _165  and  _166
REMARK   74  A    between atoms: _172  and  _174
REMARK   75  A    between atoms: _174  and  _175
REMARK   76  A    between atoms: _174  and  _177
REMARK   77  A    between atoms: _177  and  _178
REMARK   78  A    between atoms: _181  and  _183
REMARK   79  A    between atoms: _183  and  _184
REMARK   80  A    between atoms: _183  and  _186
REMARK   81  A    between atoms: _189  and  _191
REMARK   82  A    between atoms: _191  and  _192
REMARK   83  A    between atoms: _191  and  _194
REMARK   84  A    between atoms: _194  and  _195
REMARK   85  A    between atoms: _199  and  _200
REMARK   86  A    between atoms: _205  and  _207
REMARK   87  A    between atoms: _207  and  _208
REMARK   88  A    between atoms: _207  and  _210
REMARK   89  A    between atoms: _210  and  _211
REMARK   90  A    between atoms: _215  and  _216
REMARK   91  A    between atoms: _221  and  _223
REMARK   92  A    between atoms: _223  and  _224
REMARK   93  A    between atoms: _223  and  _226
REMARK   94  A    between atoms: _229  and  _231
REMARK   95  A    between atoms: _231  and  _232
REMARK   96  A    between atoms: _231  and  _234
REMARK   97  A    between atoms: _234  and  _235
REMARK   98  A    between atoms: _240  and  _242
REMARK   99  A    between atoms: _242  and  _243
REMARK  100  A    between atoms: _242  and  _245
REMARK  101  A    between atoms: _245  and  _246
REMARK  102  A    between atoms: _249  and  _251
REMARK  103  A    between atoms: _251  and  _252
REMARK  104  A    between atoms: _251  and  _254
REMARK  105  A    between atoms: _254  and  _255
REMARK  106  A    between atoms: _258  and  _260
REMARK  107  A    between atoms: _260  and  _261
REMARK  108  A    between atoms: _263  and  _265
REMARK  109  A    between atoms: _265  and  _266
REMARK  110  A    between atoms: _265  and  _268
REMARK  111  A    between atoms: _268  and  _269
REMARK  112  A    between atoms: _269  and  _270
REMARK  113  A    between atoms: _270  and  _271
REMARK  114  A    between atoms: _280  and  _282
REMARK  115  A    between atoms: _282  and  _283
REMARK  116  A    between atoms: _282  and  _285
REMARK  117  A    between atoms: _285  and  _286
REMARK  118  A    between atoms: _291  and  _293
REMARK  119  A    between atoms: _293  and  _294
REMARK  120  A    between atoms: _293  and  _296
REMARK  121  A    between atoms: _296  and  _297
REMARK  122  A    between atoms: _297  and  _298
REMARK  123  A    between atoms: _298  and  _299
REMARK  124  A    between atoms: _308  and  _310
REMARK  125  A    between atoms: _310  and  _311
REMARK  126  A    between atoms: _310  and  _313
REMARK  127  A    between atoms: _313  and  _314
REMARK  128  A    between atoms: _317  and  _319
REMARK  129  A    between atoms: _319  and  _320
REMARK  130  A    between atoms: _319  and  _322
REMARK  131  A    between atoms: _322  and  _323
REMARK  132  A    between atoms: _326  and  _328
REMARK  133  A    between atoms: _328  and  _329
REMARK  134  A    between atoms: _328  and  _331
REMARK  135  A    between atoms: _331  and  _332
REMARK  136  A    between atoms: _335  and  _337
REMARK  137  A    between atoms: _337  and  _338
REMARK  138  A    between atoms: _337  and  _340
REMARK  139  A    between atoms: _340  and  _341
REMARK  140  A    between atoms: _344  and  _346
REMARK  141  A    between atoms: _346  and  _347
REMARK  142  A    between atoms: _349  and  _351
REMARK  143  A    between atoms: _351  and  _352
REMARK  144  A    between atoms: _355  and  _357
REMARK  145  A    between atoms: _357  and  _358
REMARK  146  A    between atoms: _357  and  _360
REMARK  147  A    between atoms: _360  and  _361
REMARK  148  A    between atoms: _364  and  _366
REMARK  149  A    between atoms: _366  and  _367
REMARK  150  A    between atoms: _366  and  _369
REMARK  151  A    between atoms: _369  and  _370
REMARK  152  A    between atoms: _373  and  _375
REMARK  153  A    between atoms: _375  and  _376
REMARK  154  A    between atoms: _375  and  _378
REMARK  155  A    between atoms: _378  and  _379
REMARK  156  A    between atoms: _382  and  _384
REMARK  157  A    between atoms: _384  and  _385
REMARK  158  A    between atoms: _384  and  _387
REMARK  159  A    between atoms: _390  and  _392
REMARK  160  A    between atoms: _392  and  _393
REMARK  161  A    between atoms: _392  and  _395
REMARK  162  A    between atoms: _395  and  _396
REMARK  163  A    between atoms: _399  and  _401
REMARK  164  A    between atoms: _401  and  _402
REMARK  165  A    between atoms: _401  and  _404
REMARK  166  A    between atoms: _404  and  _405
REMARK  167  A    between atoms: _405  and  _406
REMARK  168  A    between atoms: _406  and  _407
REMARK  169  A    between atoms: _407  and  _408
REMARK  170  A    between atoms: _412  and  _414
REMARK  171  A    between atoms: _414  and  _415
REMARK  172  A    between atoms: _414  and  _417
REMARK  173  A    between atoms: _417  and  _418
REMARK  174  A    between atoms: _418  and  _419
REMARK  175  A    between atoms: _421  and  _423
REMARK  176  A    between atoms: _423  and  _424
REMARK  177  A    between atoms: _423  and  _426
REMARK  178  A    between atoms: _426  and  _427
REMARK  179  A    between atoms: _430  and  _432
REMARK  180  A    between atoms: _432  and  _433
REMARK  181  A    between atoms: _435  and  _437
REMARK  182  A    between atoms: _437  and  _438
REMARK  183  A    between atoms: _440  and  _442
REMARK  184  A    between atoms: _442  and  _443
REMARK  185  A    between atoms: _442  and  _445
REMARK  186  A    between atoms: _445  and  _446
REMARK  187  A    between atoms: _449  and  _451
REMARK  188  A    between atoms: _451  and  _452
REMARK  189  A    between atoms: _454  and  _456
REMARK  190  A    between atoms: _456  and  _457
REMARK  191  A    between atoms: _459  and  _461
REMARK  192  A    between atoms: _461  and  _462
REMARK  193  A    between atoms: _461  and  _464
REMARK  194  A    between atoms: _464  and  _465
REMARK  195  A    between atoms: _468  and  _470
REMARK  196  A    between atoms: _470  and  _471
REMARK  197  A    between atoms: _470  and  _473
REMARK  198  A    between atoms: _476  and  _478
REMARK  199  A    between atoms: _478  and  _479
REMARK  200  A    between atoms: _478  and  _481
REMARK  201  A    between atoms: _481  and  _482
REMARK  202  A    between atoms: _486  and  _487
REMARK  203  A    between atoms: _492  and  _494
REMARK  204  A    between atoms: _494  and  _495
REMARK  205  A    between atoms: _494  and  _497
REMARK  206  A    between atoms: _497  and  _498
REMARK  207  A    between atoms: _502  and  _503
REMARK  208  A    between atoms: _508  and  _510
REMARK  209  A    between atoms: _510  and  _511
REMARK  210  A    between atoms: _510  and  _513
REMARK  211  A    between atoms: _516  and  _518
REMARK  212  A    between atoms: _518  and  _519
REMARK  213  A    between atoms: _518  and  _521
REMARK  214  A    between atoms: _521  and  _522
REMARK  215  A    between atoms: _527  and  _529
REMARK  216  A    between atoms: _529  and  _530
REMARK  217  A    between atoms: _529  and  _532
REMARK  218  A    between atoms: _532  and  _533
REMARK  219  A    between atoms: _536  and  _538
REMARK  220  A    between atoms: _538  and  _539
REMARK  221  A    between atoms: _538  and  _541
REMARK  222  A    between atoms: _541  and  _542
REMARK  223  A    between atoms: _545  and  _547
REMARK  224  A    between atoms: _547  and  _548
REMARK  225  A    between atoms: _550  and  _552
REMARK  226  A    between atoms: _552  and  _553
REMARK  227  A    between atoms: _552  and  _555
REMARK  228  A    between atoms: _555  and  _556
REMARK  229  A    between atoms: _556  and  _557
REMARK  230  A    between atoms: _557  and  _558
REMARK  231  A    between atoms: _567  and  _569
REMARK  232  A    between atoms: _569  and  _570
REMARK  233  A    between atoms: _569  and  _572
REMARK  234  A    between atoms: _572  and  _573
REMARK                            x       y       z     vdW  Elec       q    Type
REMARK                         _______ _______ _______ _____ _____    ______ ____
ROOT
ATOM      1  O   HOH     1      -6.804  15.598 -22.759  0.00  0.00    +0.000 OA
ENDROOT
TORSDOF 0
REMARK  Name = ../refined-set-2016/3bgc/3bgc_pocket.pdb
REMARK  234 active torsions:
REMARK  status: ('A' for Active; 'I' for Inactive)
REMARK    1  A    between atoms: _1  and  _3
REMARK    2  A    between atoms: _3  and  _4
REMARK    3  A    between atoms: _3  and  _6
REMARK    4  A    between atoms: _6  and  _7
REMARK    5  A    between atoms: _7  and  _8
REMARK    6  A    between atoms: _8  and  _9
REMARK    7  A    between atoms: _18  and  _20
REMARK    8  A    between atoms: _20  and  _21
REMARK    9  A    between atoms: _20  and  _23
REMARK   10  A    between atoms: _23  and  _24
REMARK   11  A    between atoms: _27  and  _29
REMARK   12  A    between atoms: _29  and  _30
REMARK   13  A    between atoms: _29  and  _32
REMARK   14  A    between atoms: _32  and  _33
REMARK   15  A    between atoms: _36  and  _38
REMARK   16  A    between atoms: _38  and  _39
REMARK   17  A    between atoms: _38  and  _41
REMARK   18  A    between atoms: _41  and  _42
REMARK   19  A    between atoms: _45  and  _47
REMARK   20  A    between atoms: _47  and  _48
REMARK   21  A    between atoms: _50  and  _52
REMARK   22  A    between atoms: _52  and  _53
REMARK   23  A    between atoms: _56  and  _58
REMARK   24  A    between atoms: _58  and  _59
REMARK   25  A    between atoms: _58  and  _61
REMARK   26  A    between atoms: _61  and  _62
REMARK   27  A    between atoms: _65  and  _67
REMARK   28  A    between atoms: _67  and  _68
REMARK   29  A    between atoms: _67  and  _70
REMARK   30  A    between atoms: _70  and  _71
REMARK   31  A    between atoms: _74  and  _76
REMARK   32  A    between atoms: _76  and  _77
REMARK   33  A    between atoms: _76  and  _79
REMARK   34  A    between atoms: _79  and  _80
REMARK   35  A    between atoms: _83  and  _85
REMARK   36  A    between atoms: _85  and  _86
REMARK   37  A    between atoms: _85  and  _88
REMARK   38  A    between atoms: _91  and  _93
REMARK   39  A    between atoms: _93  and  _94
REMARK   40  A    between atoms: _93  and  _96
REMARK   41  A    between atoms: _96  and  _97
REMARK   42  A    between atoms: _100  and  _102
REMARK   43  A    between atoms: _102  and  _103
REMARK   44  A    between atoms: _102  and  _105
REMARK   45  A    between atoms: _105  and  _106
REMARK   46  A    between atoms: _106  and  _107
REMARK   47  A    between atoms: _107  and  _108
REMARK   48  A    between atoms: _108  and  _109
REMARK   49  A    between atoms: _113  and  _115
REMARK   50  A    between atoms: _115  and  _116
REMARK   51  A    between atoms: _115  and  _118
REMARK   52  A    between atoms: _118  and  _119
REMARK   53  A    between atoms: _119  and  _120
REMARK   54  A    between atoms: _122  and  _124
REMARK   55  A    between atoms: _124  and  _125
REMARK   56  A    between atoms: _124  and  _127
REMARK   57  A    between atoms: _127  and  _128
REMARK   58  A    between atoms: _131  and  _133
REMARK   59  A    between atoms: _133  and  _134
REMARK   60  A    between atoms: _136  and  _138
REMARK   61  A    between atoms: _138  and  _139
REMARK   62  A    between atoms: _141  and  _143
REMARK   63  A    between atoms: _143  and  _144
REMARK   64  A    between atoms: _143  and  _146
REMARK   65  A    between atoms: _146  and  _147
REMARK   66  A    between atoms: _150  and  _152
REMARK   67  A    between atoms: _152  and  _153
REMARK   68  A    between atoms: _155  and  _157
REMARK   69  A    between atoms: _157  and  _158
REMARK   70  A    between atoms: _160  and  _162
REMARK   71  A    between atoms: _162  and  _163
REMARK   72  A    between atoms: _162  and  _165
REMARK   73  A    between atoms: _165  and  _166
REMARK   74  A    between atoms: _172  and  _174
REMARK   75  A    between atoms: _174  and  _175
REMARK   76  A    between atoms: _174  and  _177
REMARK   77  A    between atoms: _177  and  _178
REMARK   78  A    between atoms: _181  and  _183
REMARK   79  A    between atoms: _183  and  _184
REMARK   80  A    between atoms: _183  and  _186
REMARK   81  A    between atoms: _189  and  _191
REMARK   82  A    between atoms: _191  and  _192
REMARK   83  A    between atoms: _191  and  _194
REMARK   84  A    between atoms: _194  and  _195
REMARK   85  A    between atoms: _199  and  _200
REMARK   86  A    between atoms: _205  and  _207
REMARK   87  A    between atoms: _207  and  _208
REMARK   88  A    between atoms: _207  and  _210
REMARK   89  A    between atoms: _210  and  _211
REMARK   90  A    between atoms: _215  and  _216
REMARK   91  A    between atoms: _221  and  _223
REMARK   92  A    between atoms: _223  and  _224
REMARK   93  A    between atoms: _223  and  _226
REMARK   94  A    between atoms: _229  and  _231
REMARK   95  A    between atoms: _231  and  _232
REMARK   96  A    between atoms: _231  and  _234
REMARK   97  A    between atoms: _234  and  _235
REMARK   98  A    between atoms: _240  and  _242
REMARK   99  A    between atoms: _242  and  _243
REMARK  100  A    between atoms: _242  and  _245
REMARK  101  A    between atoms: _245  and  _246
REMARK  102  A    between atoms: _249  and  _251
REMARK  103  A    between atoms: _251  and  _252
REMARK  104  A    between atoms: _251  and  _254
REMARK  105  A    between atoms: _254  and  _255
REMARK  106  A    between atoms: _258  and  _260
REMARK  107  A    between atoms: _260  and  _261
REMARK  108  A    between atoms: _263  and  _265
REMARK  109  A    between atoms: _265  and  _266
REMARK  110  A    between atoms: _265  and  _268
REMARK  111  A    between atoms: _268  and  _269
REMARK  112  A    between atoms: _269  and  _270
REMARK  113  A    between atoms: _270  and  _271
REMARK  114  A    between atoms: _280  and  _282
REMARK  115  A    between atoms: _282  and  _283
REMARK  116  A    between atoms: _282  and  _285
REMARK  117  A    between atoms: _285  and  _286
REMARK  118  A    between atoms: _291  and  _293
REMARK  119  A    between atoms: _293  and  _294
REMARK  120  A    between atoms: _293  and  _296
REMARK  121  A    between atoms: _296  and  _297
REMARK  122  A    between atoms: _297  and  _298
REMARK  123  A    between atoms: _298  and  _299
REMARK  124  A    between atoms: _308  and  _310
REMARK  125  A    between atoms: _310  and  _311
REMARK  126  A    between atoms: _310  and  _313
REMARK  127  A    between atoms: _313  and  _314
REMARK  128  A    between atoms: _317  and  _319
REMARK  129  A    between atoms: _319  and  _320
REMARK  130  A    between atoms: _319  and  _322
REMARK  131  A    between atoms: _322  and  _323
REMARK  132  A    between atoms: _326  and  _328
REMARK  133  A    between atoms: _328  and  _329
REMARK  134  A    between atoms: _328  and  _331
REMARK  135  A    between atoms: _331  and  _332
REMARK  136  A    between atoms: _335  and  _337
REMARK  137  A    between atoms: _337  and  _338
REMARK  138  A    between atoms: _337  and  _340
REMARK  139  A    between atoms: _340  and  _341
REMARK  140  A    between atoms: _344  and  _346
REMARK  141  A    between atoms: _346  and  _347
REMARK  142  A    between atoms: _349  and  _351
REMARK  143  A    between atoms: _351  and  _352
REMARK  144  A    between atoms: _355  and  _357
REMARK  145  A    between atoms: _357  and  _358
REMARK  146  A    between atoms: _357  and  _360
REMARK  147  A    between atoms: _360  and  _361
REMARK  148  A    between atoms: _364  and  _366
REMARK  149  A    between atoms: _366  and  _367
REMARK  150  A    between atoms: _366  and  _369
REMARK  151  A    between atoms: _369  and  _370
REMARK  152  A    between atoms: _373  and  _375
REMARK  153  A    between atoms: _375  and  _376
REMARK  154  A    between atoms: _375  and  _378
REMARK  155  A    between atoms: _378  and  _379
REMARK  156  A    between atoms: _382  and  _384
REMARK  157  A    between atoms: _384  and  _385
REMARK  158  A    between atoms: _384  and  _387
REMARK  159  A    between atoms: _390  and  _392
REMARK  160  A    between atoms: _392  and  _393
REMARK  161  A    between atoms: _392  and  _395
REMARK  162  A    between atoms: _395  and  _396
REMARK  163  A    between atoms: _399  and  _401
REMARK  164  A    between atoms: _401  and  _402
REMARK  165  A    between atoms: _401  and  _404
REMARK  166  A    between atoms: _404  and  _405
REMARK  167  A    between atoms: _405  and  _406
REMARK  168  A    between atoms: _406  and  _407
REMARK  169  A    between atoms: _407  and  _408
REMARK  170  A    between atoms: _412  and  _414
REMARK  171  A    between atoms: _414  and  _415
REMARK  172  A    between atoms: _414  and  _417
REMARK  173  A    between atoms: _417  and  _418
REMARK  174  A    between atoms: _418  and  _419
REMARK  175  A    between atoms: _421  and  _423
REMARK  176  A    between atoms: _423  and  _424
REMARK  177  A    between atoms: _423  and  _426
REMARK  178  A    between atoms: _426  and  _427
REMARK  179  A    between atoms: _430  and  _432
REMARK  180  A    between atoms: _432  and  _433
REMARK  181  A    between atoms: _435  and  _437
REMARK  182  A    between atoms: _437  and  _438
REMARK  183  A    between atoms: _440  and  _442
REMARK  184  A    between atoms: _442  and  _443
REMARK  185  A    between atoms: _442  and  _445
REMARK  186  A    between atoms: _445  and  _446
REMARK  187  A    between atoms: _449  and  _451
REMARK  188  A    between atoms: _451  and  _452
REMARK  189  A    between atoms: _454  and  _456
REMARK  190  A    between atoms: _456  and  _457
REMARK  191  A    between atoms: _459  and  _461
REMARK  192  A    between atoms: _461  and  _462
REMARK  193  A    between atoms: _461  and  _464
REMARK  194  A    between atoms: _464  and  _465
REMARK  195  A    between atoms: _468  and  _470
REMARK  196  A    between atoms: _470  and  _471
REMARK  197  A    between atoms: _470  and  _473
REMARK  198  A    between atoms: _476  and  _478
REMARK  199  A    between atoms: _478  and  _479
REMARK  200  A    between atoms: _478  and  _481
REMARK  201  A    between atoms: _481  and  _482
REMARK  202  A    between atoms: _486  and  _487
REMARK  203  A    between atoms: _492  and  _494
REMARK  204  A    between atoms: _494  and  _495
REMARK  205  A    between atoms: _494  and  _497
REMARK  206  A    between atoms: _497  and  _498
REMARK  207  A    between atoms: _502  and  _503
REMARK  208  A    between atoms: _508  and  _510
REMARK  209  A    between atoms: _510  and  _511
REMARK  210  A    between atoms: _510  and  _513
REMARK  211  A    between atoms: _516  and  _518
REMARK  212  A    between atoms: _518  and  _519
REMARK  213  A    between atoms: _518  and  _521
REMARK  214  A    between atoms: _521  and  _522
REMARK  215  A    between atoms: _527  and  _529
REMARK  216  A    between atoms: _529  and  _530
REMARK  217  A    between atoms: _529  and  _532
REMARK  218  A    between atoms: _532  and  _533
REMARK  219  A    between atoms: _536  and  _538
REMARK  220  A    between atoms: _538  and  _539
REMARK  221  A    between atoms: _538  and  _541
REMARK  222  A    between atoms: _541  and  _542
REMARK  223  A    between atoms: _545  and  _547
REMARK  224  A    between atoms: _547  and  _548
REMARK  225  A    between atoms: _550  and  _552
REMARK  226  A    between atoms: _552  and  _553
REMARK  227  A    between atoms: _552  and  _555
REMARK  228  A    between atoms: _555  and  _556
REMARK  229  A    between atoms: _556  and  _557
REMARK  230  A    between atoms: _557  and  _558
REMARK  231  A    between atoms: _567  and  _569
REMARK  232  A    between atoms: _569  and  _570
REMARK  233  A    between atoms: _569  and  _572
REMARK  234  A    between atoms: _572  and  _573
REMARK                            x       y       z     vdW  Elec       q    Type
REMARK                         _______ _______ _______ _____ _____    ______ ____
ROOT
ATOM      1  O   HOH     1     -18.338  28.067 -17.075  0.00  0.00    +0.000 OA
ENDROOT
TORSDOF 0
REMARK  Name = ../refined-set-2016/3bgc/3bgc_pocket.pdb
REMARK  234 active torsions:
REMARK  status: ('A' for Active; 'I' for Inactive)
REMARK    1  A    between atoms: _1  and  _3
REMARK    2  A    between atoms: _3  and  _4
REMARK    3  A    between atoms: _3  and  _6
REMARK    4  A    between atoms: _6  and  _7
REMARK    5  A    between atoms: _7  and  _8
REMARK    6  A    between atoms: _8  and  _9
REMARK    7  A    between atoms: _18  and  _20
REMARK    8  A    between atoms: _20  and  _21
REMARK    9  A    between atoms: _20  and  _23
REMARK   10  A    between atoms: _23  and  _24
REMARK   11  A    between atoms: _27  and  _29
REMARK   12  A    between atoms: _29  and  _30
REMARK   13  A    between atoms: _29  and  _32
REMARK   14  A    between atoms: _32  and  _33
REMARK   15  A    between atoms: _36  and  _38
REMARK   16  A    between atoms: _38  and  _39
REMARK   17  A    between atoms: _38  and  _41
REMARK   18  A    between atoms: _41  and  _42
REMARK   19  A    between atoms: _45  and  _47
REMARK   20  A    between atoms: _47  and  _48
REMARK   21  A    between atoms: _50  and  _52
REMARK   22  A    between atoms: _52  and  _53
REMARK   23  A    between atoms: _56  and  _58
REMARK   24  A    between atoms: _58  and  _59
REMARK   25  A    between atoms: _58  and  _61
REMARK   26  A    between atoms: _61  and  _62
REMARK   27  A    between atoms: _65  and  _67
REMARK   28  A    between atoms: _67  and  _68
REMARK   29  A    between atoms: _67  and  _70
REMARK   30  A    between atoms: _70  and  _71
REMARK   31  A    between atoms: _74  and  _76
REMARK   32  A    between atoms: _76  and  _77
REMARK   33  A    between atoms: _76  and  _79
REMARK   34  A    between atoms: _79  and  _80
REMARK   35  A    between atoms: _83  and  _85
REMARK   36  A    between atoms: _85  and  _86
REMARK   37  A    between atoms: _85  and  _88
REMARK   38  A    between atoms: _91  and  _93
REMARK   39  A    between atoms: _93  and  _94
REMARK   40  A    between atoms: _93  and  _96
REMARK   41  A    between atoms: _96  and  _97
REMARK   42  A    between atoms: _100  and  _102
REMARK   43  A    between atoms: _102  and  _103
REMARK   44  A    between atoms: _102  and  _105
REMARK   45  A    between atoms: _105  and  _106
REMARK   46  A    between atoms: _106  and  _107
REMARK   47  A    between atoms: _107  and  _108
REMARK   48  A    between atoms: _108  and  _109
REMARK   49  A    between atoms: _113  and  _115
REMARK   50  A    between atoms: _115  and  _116
REMARK   51  A    between atoms: _115  and  _118
REMARK   52  A    between atoms: _118  and  _119
REMARK   53  A    between atoms: _119  and  _120
REMARK   54  A    between atoms: _122  and  _124
REMARK   55  A    between atoms: _124  and  _125
REMARK   56  A    between atoms: _124  and  _127
REMARK   57  A    between atoms: _127  and  _128
REMARK   58  A    between atoms: _131  and  _133
REMARK   59  A    between atoms: _133  and  _134
REMARK   60  A    between atoms: _136  and  _138
REMARK   61  A    between atoms: _138  and  _139
REMARK   62  A    between atoms: _141  and  _143
REMARK   63  A    between atoms: _143  and  _144
REMARK   64  A    between atoms: _143  and  _146
REMARK   65  A    between atoms: _146  and  _147
REMARK   66  A    between atoms: _150  and  _152
REMARK   67  A    between atoms: _152  and  _153
REMARK   68  A    between atoms: _155  and  _157
REMARK   69  A    between atoms: _157  and  _158
REMARK   70  A    between atoms: _160  and  _162
REMARK   71  A    between atoms: _162  and  _163
REMARK   72  A    between atoms: _162  and  _165
REMARK   73  A    between atoms: _165  and  _166
REMARK   74  A    between atoms: _172  and  _174
REMARK   75  A    between atoms: _174  and  _175
REMARK   76  A    between atoms: _174  and  _177
REMARK   77  A    between atoms: _177  and  _178
REMARK   78  A    between atoms: _181  and  _183
REMARK   79  A    between atoms: _183  and  _184
REMARK   80  A    between atoms: _183  and  _186
REMARK   81  A    between atoms: _189  and  _191
REMARK   82  A    between atoms: _191  and  _192
REMARK   83  A    between atoms: _191  and  _194
REMARK   84  A    between atoms: _194  and  _195
REMARK   85  A    between atoms: _199  and  _200
REMARK   86  A    between atoms: _205  and  _207
REMARK   87  A    between atoms: _207  and  _208
REMARK   88  A    between atoms: _207  and  _210
REMARK   89  A    between atoms: _210  and  _211
REMARK   90  A    between atoms: _215  and  _216
REMARK   91  A    between atoms: _221  and  _223
REMARK   92  A    between atoms: _223  and  _224
REMARK   93  A    between atoms: _223  and  _226
REMARK   94  A    between atoms: _229  and  _231
REMARK   95  A    between atoms: _231  and  _232
REMARK   96  A    between atoms: _231  and  _234
REMARK   97  A    between atoms: _234  and  _235
REMARK   98  A    between atoms: _240  and  _242
REMARK   99  A    between atoms: _242  and  _243
REMARK  100  A    between atoms: _242  and  _245
REMARK  101  A    between atoms: _245  and  _246
REMARK  102  A    between atoms: _249  and  _251
REMARK  103  A    between atoms: _251  and  _252
REMARK  104  A    between atoms: _251  and  _254
REMARK  105  A    between atoms: _254  and  _255
REMARK  106  A    between atoms: _258  and  _260
REMARK  107  A    between atoms: _260  and  _261
REMARK  108  A    between atoms: _263  and  _265
REMARK  109  A    between atoms: _265  and  _266
REMARK  110  A    between atoms: _265  and  _268
REMARK  111  A    between atoms: _268  and  _269
REMARK  112  A    between atoms: _269  and  _270
REMARK  113  A    between atoms: _270  and  _271
REMARK  114  A    between atoms: _280  and  _282
REMARK  115  A    between atoms: _282  and  _283
REMARK  116  A    between atoms: _282  and  _285
REMARK  117  A    between atoms: _285  and  _286
REMARK  118  A    between atoms: _291  and  _293
REMARK  119  A    between atoms: _293  and  _294
REMARK  120  A    between atoms: _293  and  _296
REMARK  121  A    between atoms: _296  and  _297
REMARK  122  A    between atoms: _297  and  _298
REMARK  123  A    between atoms: _298  and  _299
REMARK  124  A    between atoms: _308  and  _310
REMARK  125  A    between atoms: _310  and  _311
REMARK  126  A    between atoms: _310  and  _313
REMARK  127  A    between atoms: _313  and  _314
REMARK  128  A    between atoms: _317  and  _319
REMARK  129  A    between atoms: _319  and  _320
REMARK  130  A    between atoms: _319  and  _322
REMARK  131  A    between atoms: _322  and  _323
REMARK  132  A    between atoms: _326  and  _328
REMARK  133  A    between atoms: _328  and  _329
REMARK  134  A    between atoms: _328  and  _331
REMARK  135  A    between atoms: _331  and  _332
REMARK  136  A    between atoms: _335  and  _337
REMARK  137  A    between atoms: _337  and  _338
REMARK  138  A    between atoms: _337  and  _340
REMARK  139  A    between atoms: _340  and  _341
REMARK  140  A    between atoms: _344  and  _346
REMARK  141  A    between atoms: _346  and  _347
REMARK  142  A    between atoms: _349  and  _351
REMARK  143  A    between atoms: _351  and  _352
REMARK  144  A    between atoms: _355  and  _357
REMARK  145  A    between atoms: _357  and  _358
REMARK  146  A    between atoms: _357  and  _360
REMARK  147  A    between atoms: _360  and  _361
REMARK  148  A    between atoms: _364  and  _366
REMARK  149  A    between atoms: _366  and  _367
REMARK  150  A    between atoms: _366  and  _369
REMARK  151  A    between atoms: _369  and  _370
REMARK  152  A    between atoms: _373  and  _375
REMARK  153  A    between atoms: _375  and  _376
REMARK  154  A    between atoms: _375  and  _378
REMARK  155  A    between atoms: _378  and  _379
REMARK  156  A    between atoms: _382  and  _384
REMARK  157  A    between atoms: _384  and  _385
REMARK  158  A    between atoms: _384  and  _387
REMARK  159  A    between atoms: _390  and  _392
REMARK  160  A    between atoms: _392  and  _393
REMARK  161  A    between atoms: _392  and  _395
REMARK  162  A    between atoms: _395  and  _396
REMARK  163  A    between atoms: _399  and  _401
REMARK  164  A    between atoms: _401  and  _402
REMARK  165  A    between atoms: _401  and  _404
REMARK  166  A    between atoms: _404  and  _405
REMARK  167  A    between atoms: _405  and  _406
REMARK  168  A    between atoms: _406  and  _407
REMARK  169  A    between atoms: _407  and  _408
REMARK  170  A    between atoms: _412  and  _414
REMARK  171  A    between atoms: _414  and  _415
REMARK  172  A    between atoms: _414  and  _417
REMARK  173  A    between atoms: _417  and  _418
REMARK  174  A    between atoms: _418  and  _419
REMARK  175  A    between atoms: _421  and  _423
REMARK  176  A    between atoms: _423  and  _424
REMARK  177  A    between atoms: _423  and  _426
REMARK  178  A    between atoms: _426  and  _427
REMARK  179  A    between atoms: _430  and  _432
REMARK  180  A    between atoms: _432  and  _433
REMARK  181  A    between atoms: _435  and  _437
REMARK  182  A    between atoms: _437  and  _438
REMARK  183  A    between atoms: _440  and  _442
REMARK  184  A    between atoms: _442  and  _443
REMARK  185  A    between atoms: _442  and  _445
REMARK  186  A    between atoms: _445  and  _446
REMARK  187  A    between atoms: _449  and  _451
REMARK  188  A    between atoms: _451  and  _452
REMARK  189  A    between atoms: _454  and  _456
REMARK  190  A    between atoms: _456  and  _457
REMARK  191  A    between atoms: _459  and  _461
REMARK  192  A    between atoms: _461  and  _462
REMARK  193  A    between atoms: _461  and  _464
REMARK  194  A    between atoms: _464  and  _465
REMARK  195  A    between atoms: _468  and  _470
REMARK  196  A    between atoms: _470  and  _471
REMARK  197  A    between atoms: _470  and  _473
REMARK  198  A    between atoms: _476  and  _478
REMARK  199  A    between atoms: _478  and  _479
REMARK  200  A    between atoms: _478  and  _481
REMARK  201  A    between atoms: _481  and  _482
REMARK  202  A    between atoms: _486  and  _487
REMARK  203  A    between atoms: _492  and  _494
REMARK  204  A    between atoms: _494  and  _495
REMARK  205  A    between atoms: _494  and  _497
REMARK  206  A    between atoms: _497  and  _498
REMARK  207  A    between atoms: _502  and  _503
REMARK  208  A    between atoms: _508  and  _510
REMARK  209  A    between atoms: _510  and  _511
REMARK  210  A    between atoms: _510  and  _513
REMARK  211  A    between atoms: _516  and  _518
REMARK  212  A    between atoms: _518  and  _519
REMARK  213  A    between atoms: _518  and  _521
REMARK  214  A    between atoms: _521  and  _522
REMARK  215  A    between atoms: _527  and  _529
REMARK  216  A    between atoms: _529  and  _530
REMARK  217  A    between atoms: _529  and  _532
REMARK  218  A    between atoms: _532  and  _533
REMARK  219  A    between atoms: _536  and  _538
REMARK  220  A    between atoms: _538  and  _539
REMARK  221  A    between atoms: _538  and  _541
REMARK  222  A    between atoms: _541  and  _542
REMARK  223  A    between atoms: _545  and  _547
REMARK  224  A    between atoms: _547  and  _548
REMARK  225  A    between atoms: _550  and  _552
REMARK  226  A    between atoms: _552  and  _553
REMARK  227  A    between atoms: _552  and  _555
REMARK  228  A    between atoms: _555  and  _556
REMARK  229  A    between atoms: _556  and  _557
REMARK  230  A    between atoms: _557  and  _558
REMARK  231  A    between atoms: _567  and  _569
REMARK  232  A    between atoms: _569  and  _570
REMARK  233  A    between atoms: _569  and  _572
REMARK  234  A    between atoms: _572  and  _573
REMARK                            x       y       z     vdW  Elec       q    Type
REMARK                         _______ _______ _______ _____ _____    ______ ____
ROOT
ATOM      1  O   HOH     1     -13.893  28.180  -9.563  0.00  0.00    +0.000 OA
ENDROOT
TORSDOF 0
REMARK  Name = ../refined-set-2016/3bgc/3bgc_pocket.pdb
REMARK  234 active torsions:
REMARK  status: ('A' for Active; 'I' for Inactive)
REMARK    1  A    between atoms: _1  and  _3
REMARK    2  A    between atoms: _3  and  _4
REMARK    3  A    between atoms: _3  and  _6
REMARK    4  A    between atoms: _6  and  _7
REMARK    5  A    between atoms: _7  and  _8
REMARK    6  A    between atoms: _8  and  _9
REMARK    7  A    between atoms: _18  and  _20
REMARK    8  A    between atoms: _20  and  _21
REMARK    9  A    between atoms: _20  and  _23
REMARK   10  A    between atoms: _23  and  _24
REMARK   11  A    between atoms: _27  and  _29
REMARK   12  A    between atoms: _29  and  _30
REMARK   13  A    between atoms: _29  and  _32
REMARK   14  A    between atoms: _32  and  _33
REMARK   15  A    between atoms: _36  and  _38
REMARK   16  A    between atoms: _38  and  _39
REMARK   17  A    between atoms: _38  and  _41
REMARK   18  A    between atoms: _41  and  _42
REMARK   19  A    between atoms: _45  and  _47
REMARK   20  A    between atoms: _47  and  _48
REMARK   21  A    between atoms: _50  and  _52
REMARK   22  A    between atoms: _52  and  _53
REMARK   23  A    between atoms: _56  and  _58
REMARK   24  A    between atoms: _58  and  _59
REMARK   25  A    between atoms: _58  and  _61
REMARK   26  A    between atoms: _61  and  _62
REMARK   27  A    between atoms: _65  and  _67
REMARK   28  A    between atoms: _67  and  _68
REMARK   29  A    between atoms: _67  and  _70
REMARK   30  A    between atoms: _70  and  _71
REMARK   31  A    between atoms: _74  and  _76
REMARK   32  A    between atoms: _76  and  _77
REMARK   33  A    between atoms: _76  and  _79
REMARK   34  A    between atoms: _79  and  _80
REMARK   35  A    between atoms: _83  and  _85
REMARK   36  A    between atoms: _85  and  _86
REMARK   37  A    between atoms: _85  and  _88
REMARK   38  A    between atoms: _91  and  _93
REMARK   39  A    between atoms: _93  and  _94
REMARK   40  A    between atoms: _93  and  _96
REMARK   41  A    between atoms: _96  and  _97
REMARK   42  A    between atoms: _100  and  _102
REMARK   43  A    between atoms: _102  and  _103
REMARK   44  A    between atoms: _102  and  _105
REMARK   45  A    between atoms: _105  and  _106
REMARK   46  A    between atoms: _106  and  _107
REMARK   47  A    between atoms: _107  and  _108
REMARK   48  A    between atoms: _108  and  _109
REMARK   49  A    between atoms: _113  and  _115
REMARK   50  A    between atoms: _115  and  _116
REMARK   51  A    between atoms: _115  and  _118
REMARK   52  A    between atoms: _118  and  _119
REMARK   53  A    between atoms: _119  and  _120
REMARK   54  A    between atoms: _122  and  _124
REMARK   55  A    between atoms: _124  and  _125
REMARK   56  A    between atoms: _124  and  _127
REMARK   57  A    between atoms: _127  and  _128
REMARK   58  A    between atoms: _131  and  _133
REMARK   59  A    between atoms: _133  and  _134
REMARK   60  A    between atoms: _136  and  _138
REMARK   61  A    between atoms: _138  and  _139
REMARK   62  A    between atoms: _141  and  _143
REMARK   63  A    between atoms: _143  and  _144
REMARK   64  A    between atoms: _143  and  _146
REMARK   65  A    between atoms: _146  and  _147
REMARK   66  A    between atoms: _150  and  _152
REMARK   67  A    between atoms: _152  and  _153
REMARK   68  A    between atoms: _155  and  _157
REMARK   69  A    between atoms: _157  and  _158
REMARK   70  A    between atoms: _160  and  _162
REMARK   71  A    between atoms: _162  and  _163
REMARK   72  A    between atoms: _162  and  _165
REMARK   73  A    between atoms: _165  and  _166
REMARK   74  A    between atoms: _172  and  _174
REMARK   75  A    between atoms: _174  and  _175
REMARK   76  A    between atoms: _174  and  _177
REMARK   77  A    between atoms: _177  and  _178
REMARK   78  A    between atoms: _181  and  _183
REMARK   79  A    between atoms: _183  and  _184
REMARK   80  A    between atoms: _183  and  _186
REMARK   81  A    between atoms: _189  and  _191
REMARK   82  A    between atoms: _191  and  _192
REMARK   83  A    between atoms: _191  and  _194
REMARK   84  A    between atoms: _194  and  _195
REMARK   85  A    between atoms: _199  and  _200
REMARK   86  A    between atoms: _205  and  _207
REMARK   87  A    between atoms: _207  and  _208
REMARK   88  A    between atoms: _207  and  _210
REMARK   89  A    between atoms: _210  and  _211
REMARK   90  A    between atoms: _215  and  _216
REMARK   91  A    between atoms: _221  and  _223
REMARK   92  A    between atoms: _223  and  _224
REMARK   93  A    between atoms: _223  and  _226
REMARK   94  A    between atoms: _229  and  _231
REMARK   95  A    between atoms: _231  and  _232
REMARK   96  A    between atoms: _231  and  _234
REMARK   97  A    between atoms: _234  and  _235
REMARK   98  A    between atoms: _240  and  _242
REMARK   99  A    between atoms: _242  and  _243
REMARK  100  A    between atoms: _242  and  _245
REMARK  101  A    between atoms: _245  and  _246
REMARK  102  A    between atoms: _249  and  _251
REMARK  103  A    between atoms: _251  and  _252
REMARK  104  A    between atoms: _251  and  _254
REMARK  105  A    between atoms: _254  and  _255
REMARK  106  A    between atoms: _258  and  _260
REMARK  107  A    between atoms: _260  and  _261
REMARK  108  A    between atoms: _263  and  _265
REMARK  109  A    between atoms: _265  and  _266
REMARK  110  A    between atoms: _265  and  _268
REMARK  111  A    between atoms: _268  and  _269
REMARK  112  A    between atoms: _269  and  _270
REMARK  113  A    between atoms: _270  and  _271
REMARK  114  A    between atoms: _280  and  _282
REMARK  115  A    between atoms: _282  and  _283
REMARK  116  A    between atoms: _282  and  _285
REMARK  117  A    between atoms: _285  and  _286
REMARK  118  A    between atoms: _291  and  _293
REMARK  119  A    between atoms: _293  and  _294
REMARK  120  A    between atoms: _293  and  _296
REMARK  121  A    between atoms: _296  and  _297
REMARK  122  A    between atoms: _297  and  _298
REMARK  123  A    between atoms: _298  and  _299
REMARK  124  A    between atoms: _308  and  _310
REMARK  125  A    between atoms: _310  and  _311
REMARK  126  A    between atoms: _310  and  _313
REMARK  127  A    between atoms: _313  and  _314
REMARK  128  A    between atoms: _317  and  _319
REMARK  129  A    between atoms: _319  and  _320
REMARK  130  A    between atoms: _319  and  _322
REMARK  131  A    between atoms: _322  and  _323
REMARK  132  A    between atoms: _326  and  _328
REMARK  133  A    between atoms: _328  and  _329
REMARK  134  A    between atoms: _328  and  _331
REMARK  135  A    between atoms: _331  and  _332
REMARK  136  A    between atoms: _335  and  _337
REMARK  137  A    between atoms: _337  and  _338
REMARK  138  A    between atoms: _337  and  _340
REMARK  139  A    between atoms: _340  and  _341
REMARK  140  A    between atoms: _344  and  _346
REMARK  141  A    between atoms: _346  and  _347
REMARK  142  A    between atoms: _349  and  _351
REMARK  143  A    between atoms: _351  and  _352
REMARK  144  A    between atoms: _355  and  _357
REMARK  145  A    between atoms: _357  and  _358
REMARK  146  A    between atoms: _357  and  _360
REMARK  147  A    between atoms: _360  and  _361
REMARK  148  A    between atoms: _364  and  _366
REMARK  149  A    between atoms: _366  and  _367
REMARK  150  A    between atoms: _366  and  _369
REMARK  151  A    between atoms: _369  and  _370
REMARK  152  A    between atoms: _373  and  _375
REMARK  153  A    between atoms: _375  and  _376
REMARK  154  A    between atoms: _375  and  _378
REMARK  155  A    between atoms: _378  and  _379
REMARK  156  A    between atoms: _382  and  _384
REMARK  157  A    between atoms: _384  and  _385
REMARK  158  A    between atoms: _384  and  _387
REMARK  159  A    between atoms: _390  and  _392
REMARK  160  A    between atoms: _392  and  _393
REMARK  161  A    between atoms: _392  and  _395
REMARK  162  A    between atoms: _395  and  _396
REMARK  163  A    between atoms: _399  and  _401
REMARK  164  A    between atoms: _401  and  _402
REMARK  165  A    between atoms: _401  and  _404
REMARK  166  A    between atoms: _404  and  _405
REMARK  167  A    between atoms: _405  and  _406
REMARK  168  A    between atoms: _406  and  _407
REMARK  169  A    between atoms: _407  and  _408
REMARK  170  A    between atoms: _412  and  _414
REMARK  171  A    between atoms: _414  and  _415
REMARK  172  A    between atoms: _414  and  _417
REMARK  173  A    between atoms: _417  and  _418
REMARK  174  A    between atoms: _418  and  _419
REMARK  175  A    between atoms: _421  and  _423
REMARK  176  A    between atoms: _423  and  _424
REMARK  177  A    between atoms: _423  and  _426
REMARK  178  A    between atoms: _426  and  _427
REMARK  179  A    between atoms: _430  and  _432
REMARK  180  A    between atoms: _432  and  _433
REMARK  181  A    between atoms: _435  and  _437
REMARK  182  A    between atoms: _437  and  _438
REMARK  183  A    between atoms: _440  and  _442
REMARK  184  A    between atoms: _442  and  _443
REMARK  185  A    between atoms: _442  and  _445
REMARK  186  A    between atoms: _445  and  _446
REMARK  187  A    between atoms: _449  and  _451
REMARK  188  A    between atoms: _451  and  _452
REMARK  189  A    between atoms: _454  and  _456
REMARK  190  A    between atoms: _456  and  _457
REMARK  191  A    between atoms: _459  and  _461
REMARK  192  A    between atoms: _461  and  _462
REMARK  193  A    between atoms: _461  and  _464
REMARK  194  A    between atoms: _464  and  _465
REMARK  195  A    between atoms: _468  and  _470
REMARK  196  A    between atoms: _470  and  _471
REMARK  197  A    between atoms: _470  and  _473
REMARK  198  A    between atoms: _476  and  _478
REMARK  199  A    between atoms: _478  and  _479
REMARK  200  A    between atoms: _478  and  _481
REMARK  201  A    between atoms: _481  and  _482
REMARK  202  A    between atoms: _486  and  _487
REMARK  203  A    between atoms: _492  and  _494
REMARK  204  A    between atoms: _494  and  _495
REMARK  205  A    between atoms: _494  and  _497
REMARK  206  A    between atoms: _497  and  _498
REMARK  207  A    between atoms: _502  and  _503
REMARK  208  A    between atoms: _508  and  _510
REMARK  209  A    between atoms: _510  and  _511
REMARK  210  A    between atoms: _510  and  _513
REMARK  211  A    between atoms: _516  and  _518
REMARK  212  A    between atoms: _518  and  _519
REMARK  213  A    between atoms: _518  and  _521
REMARK  214  A    between atoms: _521  and  _522
REMARK  215  A    between atoms: _527  and  _529
REMARK  216  A    between atoms: _529  and  _530
REMARK  217  A    between atoms: _529  and  _532
REMARK  218  A    between atoms: _532  and  _533
REMARK  219  A    between atoms: _536  and  _538
REMARK  220  A    between atoms: _538  and  _539
REMARK  221  A    between atoms: _538  and  _541
REMARK  222  A    between atoms: _541  and  _542
REMARK  223  A    between atoms: _545  and  _547
REMARK  224  A    between atoms: _547  and  _548
REMARK  225  A    between atoms: _550  and  _552
REMARK  226  A    between atoms: _552  and  _553
REMARK  227  A    between atoms: _552  and  _555
REMARK  228  A    between atoms: _555  and  _556
REMARK  229  A    between atoms: _556  and  _557
REMARK  230  A    between atoms: _557  and  _558
REMARK  231  A    between atoms: _567  and  _569
REMARK  232  A    between atoms: _569  and  _570
REMARK  233  A    between atoms: _569  and  _572
REMARK  234  A    between atoms: _572  and  _573
REMARK                            x       y       z     vdW  Elec       q    Type
REMARK                         _______ _______ _______ _____ _____    ______ ____
ROOT
ATOM      1  O   HOH     1      -6.224  27.436 -19.728  0.00  0.00    +0.000 OA
ENDROOT
TORSDOF 0
REMARK  Name = ../refined-set-2016/3bgc/3bgc_pocket.pdb
REMARK  234 active torsions:
REMARK  status: ('A' for Active; 'I' for Inactive)
REMARK    1  A    between atoms: _1  and  _3
REMARK    2  A    between atoms: _3  and  _4
REMARK    3  A    between atoms: _3  and  _6
REMARK    4  A    between atoms: _6  and  _7
REMARK    5  A    between atoms: _7  and  _8
REMARK    6  A    between atoms: _8  and  _9
REMARK    7  A    between atoms: _18  and  _20
REMARK    8  A    between atoms: _20  and  _21
REMARK    9  A    between atoms: _20  and  _23
REMARK   10  A    between atoms: _23  and  _24
REMARK   11  A    between atoms: _27  and  _29
REMARK   12  A    between atoms: _29  and  _30
REMARK   13  A    between atoms: _29  and  _32
REMARK   14  A    between atoms: _32  and  _33
REMARK   15  A    between atoms: _36  and  _38
REMARK   16  A    between atoms: _38  and  _39
REMARK   17  A    between atoms: _38  and  _41
REMARK   18  A    between atoms: _41  and  _42
REMARK   19  A    between atoms: _45  and  _47
REMARK   20  A    between atoms: _47  and  _48
REMARK   21  A    between atoms: _50  and  _52
REMARK   22  A    between atoms: _52  and  _53
REMARK   23  A    between atoms: _56  and  _58
REMARK   24  A    between atoms: _58  and  _59
REMARK   25  A    between atoms: _58  and  _61
REMARK   26  A    between atoms: _61  and  _62
REMARK   27  A    between atoms: _65  and  _67
REMARK   28  A    between atoms: _67  and  _68
REMARK   29  A    between atoms: _67  and  _70
REMARK   30  A    between atoms: _70  and  _71
REMARK   31  A    between atoms: _74  and  _76
REMARK   32  A    between atoms: _76  and  _77
REMARK   33  A    between atoms: _76  and  _79
REMARK   34  A    between atoms: _79  and  _80
REMARK   35  A    between atoms: _83  and  _85
REMARK   36  A    between atoms: _85  and  _86
REMARK   37  A    between atoms: _85  and  _88
REMARK   38  A    between atoms: _91  and  _93
REMARK   39  A    between atoms: _93  and  _94
REMARK   40  A    between atoms: _93  and  _96
REMARK   41  A    between atoms: _96  and  _97
REMARK   42  A    between atoms: _100  and  _102
REMARK   43  A    between atoms: _102  and  _103
REMARK   44  A    between atoms: _102  and  _105
REMARK   45  A    between atoms: _105  and  _106
REMARK   46  A    between atoms: _106  and  _107
REMARK   47  A    between atoms: _107  and  _108
REMARK   48  A    between atoms: _108  and  _109
REMARK   49  A    between atoms: _113  and  _115
REMARK   50  A    between atoms: _115  and  _116
REMARK   51  A    between atoms: _115  and  _118
REMARK   52  A    between atoms: _118  and  _119
REMARK   53  A    between atoms: _119  and  _120
REMARK   54  A    between atoms: _122  and  _124
REMARK   55  A    between atoms: _124  and  _125
REMARK   56  A    between atoms: _124  and  _127
REMARK   57  A    between atoms: _127  and  _128
REMARK   58  A    between atoms: _131  and  _133
REMARK   59  A    between atoms: _133  and  _134
REMARK   60  A    between atoms: _136  and  _138
REMARK   61  A    between atoms: _138  and  _139
REMARK   62  A    between atoms: _141  and  _143
REMARK   63  A    between atoms: _143  and  _144
REMARK   64  A    between atoms: _143  and  _146
REMARK   65  A    between atoms: _146  and  _147
REMARK   66  A    between atoms: _150  and  _152
REMARK   67  A    between atoms: _152  and  _153
REMARK   68  A    between atoms: _155  and  _157
REMARK   69  A    between atoms: _157  and  _158
REMARK   70  A    between atoms: _160  and  _162
REMARK   71  A    between atoms: _162  and  _163
REMARK   72  A    between atoms: _162  and  _165
REMARK   73  A    between atoms: _165  and  _166
REMARK   74  A    between atoms: _172  and  _174
REMARK   75  A    between atoms: _174  and  _175
REMARK   76  A    between atoms: _174  and  _177
REMARK   77  A    between atoms: _177  and  _178
REMARK   78  A    between atoms: _181  and  _183
REMARK   79  A    between atoms: _183  and  _184
REMARK   80  A    between atoms: _183  and  _186
REMARK   81  A    between atoms: _189  and  _191
REMARK   82  A    between atoms: _191  and  _192
REMARK   83  A    between atoms: _191  and  _194
REMARK   84  A    between atoms: _194  and  _195
REMARK   85  A    between atoms: _199  and  _200
REMARK   86  A    between atoms: _205  and  _207
REMARK   87  A    between atoms: _207  and  _208
REMARK   88  A    between atoms: _207  and  _210
REMARK   89  A    between atoms: _210  and  _211
REMARK   90  A    between atoms: _215  and  _216
REMARK   91  A    between atoms: _221  and  _223
REMARK   92  A    between atoms: _223  and  _224
REMARK   93  A    between atoms: _223  and  _226
REMARK   94  A    between atoms: _229  and  _231
REMARK   95  A    between atoms: _231  and  _232
REMARK   96  A    between atoms: _231  and  _234
REMARK   97  A    between atoms: _234  and  _235
REMARK   98  A    between atoms: _240  and  _242
REMARK   99  A    between atoms: _242  and  _243
REMARK  100  A    between atoms: _242  and  _245
REMARK  101  A    between atoms: _245  and  _246
REMARK  102  A    between atoms: _249  and  _251
REMARK  103  A    between atoms: _251  and  _252
REMARK  104  A    between atoms: _251  and  _254
REMARK  105  A    between atoms: _254  and  _255
REMARK  106  A    between atoms: _258  and  _260
REMARK  107  A    between atoms: _260  and  _261
REMARK  108  A    between atoms: _263  and  _265
REMARK  109  A    between atoms: _265  and  _266
REMARK  110  A    between atoms: _265  and  _268
REMARK  111  A    between atoms: _268  and  _269
REMARK  112  A    between atoms: _269  and  _270
REMARK  113  A    between atoms: _270  and  _271
REMARK  114  A    between atoms: _280  and  _282
REMARK  115  A    between atoms: _282  and  _283
REMARK  116  A    between atoms: _282  and  _285
REMARK  117  A    between atoms: _285  and  _286
REMARK  118  A    between atoms: _291  and  _293
REMARK  119  A    between atoms: _293  and  _294
REMARK  120  A    between atoms: _293  and  _296
REMARK  121  A    between atoms: _296  and  _297
REMARK  122  A    between atoms: _297  and  _298
REMARK  123  A    between atoms: _298  and  _299
REMARK  124  A    between atoms: _308  and  _310
REMARK  125  A    between atoms: _310  and  _311
REMARK  126  A    between atoms: _310  and  _313
REMARK  127  A    between atoms: _313  and  _314
REMARK  128  A    between atoms: _317  and  _319
REMARK  129  A    between atoms: _319  and  _320
REMARK  130  A    between atoms: _319  and  _322
REMARK  131  A    between atoms: _322  and  _323
REMARK  132  A    between atoms: _326  and  _328
REMARK  133  A    between atoms: _328  and  _329
REMARK  134  A    between atoms: _328  and  _331
REMARK  135  A    between atoms: _331  and  _332
REMARK  136  A    between atoms: _335  and  _337
REMARK  137  A    between atoms: _337  and  _338
REMARK  138  A    between atoms: _337  and  _340
REMARK  139  A    between atoms: _340  and  _341
REMARK  140  A    between atoms: _344  and  _346
REMARK  141  A    between atoms: _346  and  _347
REMARK  142  A    between atoms: _349  and  _351
REMARK  143  A    between atoms: _351  and  _352
REMARK  144  A    between atoms: _355  and  _357
REMARK  145  A    between atoms: _357  and  _358
REMARK  146  A    between atoms: _357  and  _360
REMARK  147  A    between atoms: _360  and  _361
REMARK  148  A    between atoms: _364  and  _366
REMARK  149  A    between atoms: _366  and  _367
REMARK  150  A    between atoms: _366  and  _369
REMARK  151  A    between atoms: _369  and  _370
REMARK  152  A    between atoms: _373  and  _375
REMARK  153  A    between atoms: _375  and  _376
REMARK  154  A    between atoms: _375  and  _378
REMARK  155  A    between atoms: _378  and  _379
REMARK  156  A    between atoms: _382  and  _384
REMARK  157  A    between atoms: _384  and  _385
REMARK  158  A    between atoms: _384  and  _387
REMARK  159  A    between atoms: _390  and  _392
REMARK  160  A    between atoms: _392  and  _393
REMARK  161  A    between atoms: _392  and  _395
REMARK  162  A    between atoms: _395  and  _396
REMARK  163  A    between atoms: _399  and  _401
REMARK  164  A    between atoms: _401  and  _402
REMARK  165  A    between atoms: _401  and  _404
REMARK  166  A    between atoms: _404  and  _405
REMARK  167  A    between atoms: _405  and  _406
REMARK  168  A    between atoms: _406  and  _407
REMARK  169  A    between atoms: _407  and  _408
REMARK  170  A    between atoms: _412  and  _414
REMARK  171  A    between atoms: _414  and  _415
REMARK  172  A    between atoms: _414  and  _417
REMARK  173  A    between atoms: _417  and  _418
REMARK  174  A    between atoms: _418  and  _419
REMARK  175  A    between atoms: _421  and  _423
REMARK  176  A    between atoms: _423  and  _424
REMARK  177  A    between atoms: _423  and  _426
REMARK  178  A    between atoms: _426  and  _427
REMARK  179  A    between atoms: _430  and  _432
REMARK  180  A    between atoms: _432  and  _433
REMARK  181  A    between atoms: _435  and  _437
REMARK  182  A    between atoms: _437  and  _438
REMARK  183  A    between atoms: _440  and  _442
REMARK  184  A    between atoms: _442  and  _443
REMARK  185  A    between atoms: _442  and  _445
REMARK  186  A    between atoms: _445  and  _446
REMARK  187  A    between atoms: _449  and  _451
REMARK  188  A    between atoms: _451  and  _452
REMARK  189  A    between atoms: _454  and  _456
REMARK  190  A    between atoms: _456  and  _457
REMARK  191  A    between atoms: _459  and  _461
REMARK  192  A    between atoms: _461  and  _462
REMARK  193  A    between atoms: _461  and  _464
REMARK  194  A    between atoms: _464  and  _465
REMARK  195  A    between atoms: _468  and  _470
REMARK  196  A    between atoms: _470  and  _471
REMARK  197  A    between atoms: _470  and  _473
REMARK  198  A    between atoms: _476  and  _478
REMARK  199  A    between atoms: _478  and  _479
REMARK  200  A    between atoms: _478  and  _481
REMARK  201  A    between atoms: _481  and  _482
REMARK  202  A    between atoms: _486  and  _487
REMARK  203  A    between atoms: _492  and  _494
REMARK  204  A    between atoms: _494  and  _495
REMARK  205  A    between atoms: _494  and  _497
REMARK  206  A    between atoms: _497  and  _498
REMARK  207  A    between atoms: _502  and  _503
REMARK  208  A    between atoms: _508  and  _510
REMARK  209  A    between atoms: _510  and  _511
REMARK  210  A    between atoms: _510  and  _513
REMARK  211  A    between atoms: _516  and  _518
REMARK  212  A    between atoms: _518  and  _519
REMARK  213  A    between atoms: _518  and  _521
REMARK  214  A    between atoms: _521  and  _522
REMARK  215  A    between atoms: _527  and  _529
REMARK  216  A    between atoms: _529  and  _530
REMARK  217  A    between atoms: _529  and  _532
REMARK  218  A    between atoms: _532  and  _533
REMARK  219  A    between atoms: _536  and  _538
REMARK  220  A    between atoms: _538  and  _539
REMARK  221  A    between atoms: _538  and  _541
REMARK  222  A    between atoms: _541  and  _542
REMARK  223  A    between atoms: _545  and  _547
REMARK  224  A    between atoms: _547  and  _548
REMARK  225  A    between atoms: _550  and  _552
REMARK  226  A    between atoms: _552  and  _553
REMARK  227  A    between atoms: _552  and  _555
REMARK  228  A    between atoms: _555  and  _556
REMARK  229  A    between atoms: _556  and  _557
REMARK  230  A    between atoms: _557  and  _558
REMARK  231  A    between atoms: _567  and  _569
REMARK  232  A    between atoms: _569  and  _570
REMARK  233  A    between atoms: _569  and  _572
REMARK  234  A    between atoms: _572  and  _573
REMARK                            x       y       z     vdW  Elec       q    Type
REMARK                         _______ _______ _______ _____ _____    ______ ____
ROOT
ATOM      1  O   HOH     1     -20.108  21.111 -16.808  0.00  0.00    +0.000 OA
ENDROOT
TORSDOF 0
REMARK  Name = ../refined-set-2016/3bgc/3bgc_pocket.pdb
REMARK  234 active torsions:
REMARK  status: ('A' for Active; 'I' for Inactive)
REMARK    1  A    between atoms: _1  and  _3
REMARK    2  A    between atoms: _3  and  _4
REMARK    3  A    between atoms: _3  and  _6
REMARK    4  A    between atoms: _6  and  _7
REMARK    5  A    between atoms: _7  and  _8
REMARK    6  A    between atoms: _8  and  _9
REMARK    7  A    between atoms: _18  and  _20
REMARK    8  A    between atoms: _20  and  _21
REMARK    9  A    between atoms: _20  and  _23
REMARK   10  A    between atoms: _23  and  _24
REMARK   11  A    between atoms: _27  and  _29
REMARK   12  A    between atoms: _29  and  _30
REMARK   13  A    between atoms: _29  and  _32
REMARK   14  A    between atoms: _32  and  _33
REMARK   15  A    between atoms: _36  and  _38
REMARK   16  A    between atoms: _38  and  _39
REMARK   17  A    between atoms: _38  and  _41
REMARK   18  A    between atoms: _41  and  _42
REMARK   19  A    between atoms: _45  and  _47
REMARK   20  A    between atoms: _47  and  _48
REMARK   21  A    between atoms: _50  and  _52
REMARK   22  A    between atoms: _52  and  _53
REMARK   23  A    between atoms: _56  and  _58
REMARK   24  A    between atoms: _58  and  _59
REMARK   25  A    between atoms: _58  and  _61
REMARK   26  A    between atoms: _61  and  _62
REMARK   27  A    between atoms: _65  and  _67
REMARK   28  A    between atoms: _67  and  _68
REMARK   29  A    between atoms: _67  and  _70
REMARK   30  A    between atoms: _70  and  _71
REMARK   31  A    between atoms: _74  and  _76
REMARK   32  A    between atoms: _76  and  _77
REMARK   33  A    between atoms: _76  and  _79
REMARK   34  A    between atoms: _79  and  _80
REMARK   35  A    between atoms: _83  and  _85
REMARK   36  A    between atoms: _85  and  _86
REMARK   37  A    between atoms: _85  and  _88
REMARK   38  A    between atoms: _91  and  _93
REMARK   39  A    between atoms: _93  and  _94
REMARK   40  A    between atoms: _93  and  _96
REMARK   41  A    between atoms: _96  and  _97
REMARK   42  A    between atoms: _100  and  _102
REMARK   43  A    between atoms: _102  and  _103
REMARK   44  A    between atoms: _102  and  _105
REMARK   45  A    between atoms: _105  and  _106
REMARK   46  A    between atoms: _106  and  _107
REMARK   47  A    between atoms: _107  and  _108
REMARK   48  A    between atoms: _108  and  _109
REMARK   49  A    between atoms: _113  and  _115
REMARK   50  A    between atoms: _115  and  _116
REMARK   51  A    between atoms: _115  and  _118
REMARK   52  A    between atoms: _118  and  _119
REMARK   53  A    between atoms: _119  and  _120
REMARK   54  A    between atoms: _122  and  _124
REMARK   55  A    between atoms: _124  and  _125
REMARK   56  A    between atoms: _124  and  _127
REMARK   57  A    between atoms: _127  and  _128
REMARK   58  A    between atoms: _131  and  _133
REMARK   59  A    between atoms: _133  and  _134
REMARK   60  A    between atoms: _136  and  _138
REMARK   61  A    between atoms: _138  and  _139
REMARK   62  A    between atoms: _141  and  _143
REMARK   63  A    between atoms: _143  and  _144
REMARK   64  A    between atoms: _143  and  _146
REMARK   65  A    between atoms: _146  and  _147
REMARK   66  A    between atoms: _150  and  _152
REMARK   67  A    between atoms: _152  and  _153
REMARK   68  A    between atoms: _155  and  _157
REMARK   69  A    between atoms: _157  and  _158
REMARK   70  A    between atoms: _160  and  _162
REMARK   71  A    between atoms: _162  and  _163
REMARK   72  A    between atoms: _162  and  _165
REMARK   73  A    between atoms: _165  and  _166
REMARK   74  A    between atoms: _172  and  _174
REMARK   75  A    between atoms: _174  and  _175
REMARK   76  A    between atoms: _174  and  _177
REMARK   77  A    between atoms: _177  and  _178
REMARK   78  A    between atoms: _181  and  _183
REMARK   79  A    between atoms: _183  and  _184
REMARK   80  A    between atoms: _183  and  _186
REMARK   81  A    between atoms: _189  and  _191
REMARK   82  A    between atoms: _191  and  _192
REMARK   83  A    between atoms: _191  and  _194
REMARK   84  A    between atoms: _194  and  _195
REMARK   85  A    between atoms: _199  and  _200
REMARK   86  A    between atoms: _205  and  _207
REMARK   87  A    between atoms: _207  and  _208
REMARK   88  A    between atoms: _207  and  _210
REMARK   89  A    between atoms: _210  and  _211
REMARK   90  A    between atoms: _215  and  _216
REMARK   91  A    between atoms: _221  and  _223
REMARK   92  A    between atoms: _223  and  _224
REMARK   93  A    between atoms: _223  and  _226
REMARK   94  A    between atoms: _229  and  _231
REMARK   95  A    between atoms: _231  and  _232
REMARK   96  A    between atoms: _231  and  _234
REMARK   97  A    between atoms: _234  and  _235
REMARK   98  A    between atoms: _240  and  _242
REMARK   99  A    between atoms: _242  and  _243
REMARK  100  A    between atoms: _242  and  _245
REMARK  101  A    between atoms: _245  and  _246
REMARK  102  A    between atoms: _249  and  _251
REMARK  103  A    between atoms: _251  and  _252
REMARK  104  A    between atoms: _251  and  _254
REMARK  105  A    between atoms: _254  and  _255
REMARK  106  A    between atoms: _258  and  _260
REMARK  107  A    between atoms: _260  and  _261
REMARK  108  A    between atoms: _263  and  _265
REMARK  109  A    between atoms: _265  and  _266
REMARK  110  A    between atoms: _265  and  _268
REMARK  111  A    between atoms: _268  and  _269
REMARK  112  A    between atoms: _269  and  _270
REMARK  113  A    between atoms: _270  and  _271
REMARK  114  A    between atoms: _280  and  _282
REMARK  115  A    between atoms: _282  and  _283
REMARK  116  A    between atoms: _282  and  _285
REMARK  117  A    between atoms: _285  and  _286
REMARK  118  A    between atoms: _291  and  _293
REMARK  119  A    between atoms: _293  and  _294
REMARK  120  A    between atoms: _293  and  _296
REMARK  121  A    between atoms: _296  and  _297
REMARK  122  A    between atoms: _297  and  _298
REMARK  123  A    between atoms: _298  and  _299
REMARK  124  A    between atoms: _308  and  _310
REMARK  125  A    between atoms: _310  and  _311
REMARK  126  A    between atoms: _310  and  _313
REMARK  127  A    between atoms: _313  and  _314
REMARK  128  A    between atoms: _317  and  _319
REMARK  129  A    between atoms: _319  and  _320
REMARK  130  A    between atoms: _319  and  _322
REMARK  131  A    between atoms: _322  and  _323
REMARK  132  A    between atoms: _326  and  _328
REMARK  133  A    between atoms: _328  and  _329
REMARK  134  A    between atoms: _328  and  _331
REMARK  135  A    between atoms: _331  and  _332
REMARK  136  A    between atoms: _335  and  _337
REMARK  137  A    between atoms: _337  and  _338
REMARK  138  A    between atoms: _337  and  _340
REMARK  139  A    between atoms: _340  and  _341
REMARK  140  A    between atoms: _344  and  _346
REMARK  141  A    between atoms: _346  and  _347
REMARK  142  A    between atoms: _349  and  _351
REMARK  143  A    between atoms: _351  and  _352
REMARK  144  A    between atoms: _355  and  _357
REMARK  145  A    between atoms: _357  and  _358
REMARK  146  A    between atoms: _357  and  _360
REMARK  147  A    between atoms: _360  and  _361
REMARK  148  A    between atoms: _364  and  _366
REMARK  149  A    between atoms: _366  and  _367
REMARK  150  A    between atoms: _366  and  _369
REMARK  151  A    between atoms: _369  and  _370
REMARK  152  A    between atoms: _373  and  _375
REMARK  153  A    between atoms: _375  and  _376
REMARK  154  A    between atoms: _375  and  _378
REMARK  155  A    between atoms: _378  and  _379
REMARK  156  A    between atoms: _382  and  _384
REMARK  157  A    between atoms: _384  and  _385
REMARK  158  A    between atoms: _384  and  _387
REMARK  159  A    between atoms: _390  and  _392
REMARK  160  A    between atoms: _392  and  _393
REMARK  161  A    between atoms: _392  and  _395
REMARK  162  A    between atoms: _395  and  _396
REMARK  163  A    between atoms: _399  and  _401
REMARK  164  A    between atoms: _401  and  _402
REMARK  165  A    between atoms: _401  and  _404
REMARK  166  A    between atoms: _404  and  _405
REMARK  167  A    between atoms: _405  and  _406
REMARK  168  A    between atoms: _406  and  _407
REMARK  169  A    between atoms: _407  and  _408
REMARK  170  A    between atoms: _412  and  _414
REMARK  171  A    between atoms: _414  and  _415
REMARK  172  A    between atoms: _414  and  _417
REMARK  173  A    between atoms: _417  and  _418
REMARK  174  A    between atoms: _418  and  _419
REMARK  175  A    between atoms: _421  and  _423
REMARK  176  A    between atoms: _423  and  _424
REMARK  177  A    between atoms: _423  and  _426
REMARK  178  A    between atoms: _426  and  _427
REMARK  179  A    between atoms: _430  and  _432
REMARK  180  A    between atoms: _432  and  _433
REMARK  181  A    between atoms: _435  and  _437
REMARK  182  A    between atoms: _437  and  _438
REMARK  183  A    between atoms: _440  and  _442
REMARK  184  A    between atoms: _442  and  _443
REMARK  185  A    between atoms: _442  and  _445
REMARK  186  A    between atoms: _445  and  _446
REMARK  187  A    between atoms: _449  and  _451
REMARK  188  A    between atoms: _451  and  _452
REMARK  189  A    between atoms: _454  and  _456
REMARK  190  A    between atoms: _456  and  _457
REMARK  191  A    between atoms: _459  and  _461
REMARK  192  A    between atoms: _461  and  _462
REMARK  193  A    between atoms: _461  and  _464
REMARK  194  A    between atoms: _464  and  _465
REMARK  195  A    between atoms: _468  and  _470
REMARK  196  A    between atoms: _470  and  _471
REMARK  197  A    between atoms: _470  and  _473
REMARK  198  A    between atoms: _476  and  _478
REMARK  199  A    between atoms: _478  and  _479
REMARK  200  A    between atoms: _478  and  _481
REMARK  201  A    between atoms: _481  and  _482
REMARK  202  A    between atoms: _486  and  _487
REMARK  203  A    between atoms: _492  and  _494
REMARK  204  A    between atoms: _494  and  _495
REMARK  205  A    between atoms: _494  and  _497
REMARK  206  A    between atoms: _497  and  _498
REMARK  207  A    between atoms: _502  and  _503
REMARK  208  A    between atoms: _508  and  _510
REMARK  209  A    between atoms: _510  and  _511
REMARK  210  A    between atoms: _510  and  _513
REMARK  211  A    between atoms: _516  and  _518
REMARK  212  A    between atoms: _518  and  _519
REMARK  213  A    between atoms: _518  and  _521
REMARK  214  A    between atoms: _521  and  _522
REMARK  215  A    between atoms: _527  and  _529
REMARK  216  A    between atoms: _529  and  _530
REMARK  217  A    between atoms: _529  and  _532
REMARK  218  A    between atoms: _532  and  _533
REMARK  219  A    between atoms: _536  and  _538
REMARK  220  A    between atoms: _538  and  _539
REMARK  221  A    between atoms: _538  and  _541
REMARK  222  A    between atoms: _541  and  _542
REMARK  223  A    between atoms: _545  and  _547
REMARK  224  A    between atoms: _547  and  _548
REMARK  225  A    between atoms: _550  and  _552
REMARK  226  A    between atoms: _552  and  _553
REMARK  227  A    between atoms: _552  and  _555
REMARK  228  A    between atoms: _555  and  _556
REMARK  229  A    between atoms: _556  and  _557
REMARK  230  A    between atoms: _557  and  _558
REMARK  231  A    between atoms: _567  and  _569
REMARK  232  A    between atoms: _569  and  _570
REMARK  233  A    between atoms: _569  and  _572
REMARK  234  A    between atoms: _572  and  _573
REMARK                            x       y       z     vdW  Elec       q    Type
REMARK                         _______ _______ _______ _____ _____    ______ ____
ROOT
ATOM      1  O   HOH     1     -22.007  26.910 -25.694  0.00  0.00    +0.000 OA
ENDROOT
TORSDOF 0
REMARK  Name = ../refined-set-2016/3bgc/3bgc_pocket.pdb
REMARK  234 active torsions:
REMARK  status: ('A' for Active; 'I' for Inactive)
REMARK    1  A    between atoms: _1  and  _3
REMARK    2  A    between atoms: _3  and  _4
REMARK    3  A    between atoms: _3  and  _6
REMARK    4  A    between atoms: _6  and  _7
REMARK    5  A    between atoms: _7  and  _8
REMARK    6  A    between atoms: _8  and  _9
REMARK    7  A    between atoms: _18  and  _20
REMARK    8  A    between atoms: _20  and  _21
REMARK    9  A    between atoms: _20  and  _23
REMARK   10  A    between atoms: _23  and  _24
REMARK   11  A    between atoms: _27  and  _29
REMARK   12  A    between atoms: _29  and  _30
REMARK   13  A    between atoms: _29  and  _32
REMARK   14  A    between atoms: _32  and  _33
REMARK   15  A    between atoms: _36  and  _38
REMARK   16  A    between atoms: _38  and  _39
REMARK   17  A    between atoms: _38  and  _41
REMARK   18  A    between atoms: _41  and  _42
REMARK   19  A    between atoms: _45  and  _47
REMARK   20  A    between atoms: _47  and  _48
REMARK   21  A    between atoms: _50  and  _52
REMARK   22  A    between atoms: _52  and  _53
REMARK   23  A    between atoms: _56  and  _58
REMARK   24  A    between atoms: _58  and  _59
REMARK   25  A    between atoms: _58  and  _61
REMARK   26  A    between atoms: _61  and  _62
REMARK   27  A    between atoms: _65  and  _67
REMARK   28  A    between atoms: _67  and  _68
REMARK   29  A    between atoms: _67  and  _70
REMARK   30  A    between atoms: _70  and  _71
REMARK   31  A    between atoms: _74  and  _76
REMARK   32  A    between atoms: _76  and  _77
REMARK   33  A    between atoms: _76  and  _79
REMARK   34  A    between atoms: _79  and  _80
REMARK   35  A    between atoms: _83  and  _85
REMARK   36  A    between atoms: _85  and  _86
REMARK   37  A    between atoms: _85  and  _88
REMARK   38  A    between atoms: _91  and  _93
REMARK   39  A    between atoms: _93  and  _94
REMARK   40  A    between atoms: _93  and  _96
REMARK   41  A    between atoms: _96  and  _97
REMARK   42  A    between atoms: _100  and  _102
REMARK   43  A    between atoms: _102  and  _103
REMARK   44  A    between atoms: _102  and  _105
REMARK   45  A    between atoms: _105  and  _106
REMARK   46  A    between atoms: _106  and  _107
REMARK   47  A    between atoms: _107  and  _108
REMARK   48  A    between atoms: _108  and  _109
REMARK   49  A    between atoms: _113  and  _115
REMARK   50  A    between atoms: _115  and  _116
REMARK   51  A    between atoms: _115  and  _118
REMARK   52  A    between atoms: _118  and  _119
REMARK   53  A    between atoms: _119  and  _120
REMARK   54  A    between atoms: _122  and  _124
REMARK   55  A    between atoms: _124  and  _125
REMARK   56  A    between atoms: _124  and  _127
REMARK   57  A    between atoms: _127  and  _128
REMARK   58  A    between atoms: _131  and  _133
REMARK   59  A    between atoms: _133  and  _134
REMARK   60  A    between atoms: _136  and  _138
REMARK   61  A    between atoms: _138  and  _139
REMARK   62  A    between atoms: _141  and  _143
REMARK   63  A    between atoms: _143  and  _144
REMARK   64  A    between atoms: _143  and  _146
REMARK   65  A    between atoms: _146  and  _147
REMARK   66  A    between atoms: _150  and  _152
REMARK   67  A    between atoms: _152  and  _153
REMARK   68  A    between atoms: _155  and  _157
REMARK   69  A    between atoms: _157  and  _158
REMARK   70  A    between atoms: _160  and  _162
REMARK   71  A    between atoms: _162  and  _163
REMARK   72  A    between atoms: _162  and  _165
REMARK   73  A    between atoms: _165  and  _166
REMARK   74  A    between atoms: _172  and  _174
REMARK   75  A    between atoms: _174  and  _175
REMARK   76  A    between atoms: _174  and  _177
REMARK   77  A    between atoms: _177  and  _178
REMARK   78  A    between atoms: _181  and  _183
REMARK   79  A    between atoms: _183  and  _184
REMARK   80  A    between atoms: _183  and  _186
REMARK   81  A    between atoms: _189  and  _191
REMARK   82  A    between atoms: _191  and  _192
REMARK   83  A    between atoms: _191  and  _194
REMARK   84  A    between atoms: _194  and  _195
REMARK   85  A    between atoms: _199  and  _200
REMARK   86  A    between atoms: _205  and  _207
REMARK   87  A    between atoms: _207  and  _208
REMARK   88  A    between atoms: _207  and  _210
REMARK   89  A    between atoms: _210  and  _211
REMARK   90  A    between atoms: _215  and  _216
REMARK   91  A    between atoms: _221  and  _223
REMARK   92  A    between atoms: _223  and  _224
REMARK   93  A    between atoms: _223  and  _226
REMARK   94  A    between atoms: _229  and  _231
REMARK   95  A    between atoms: _231  and  _232
REMARK   96  A    between atoms: _231  and  _234
REMARK   97  A    between atoms: _234  and  _235
REMARK   98  A    between atoms: _240  and  _242
REMARK   99  A    between atoms: _242  and  _243
REMARK  100  A    between atoms: _242  and  _245
REMARK  101  A    between atoms: _245  and  _246
REMARK  102  A    between atoms: _249  and  _251
REMARK  103  A    between atoms: _251  and  _252
REMARK  104  A    between atoms: _251  and  _254
REMARK  105  A    between atoms: _254  and  _255
REMARK  106  A    between atoms: _258  and  _260
REMARK  107  A    between atoms: _260  and  _261
REMARK  108  A    between atoms: _263  and  _265
REMARK  109  A    between atoms: _265  and  _266
REMARK  110  A    between atoms: _265  and  _268
REMARK  111  A    between atoms: _268  and  _269
REMARK  112  A    between atoms: _269  and  _270
REMARK  113  A    between atoms: _270  and  _271
REMARK  114  A    between atoms: _280  and  _282
REMARK  115  A    between atoms: _282  and  _283
REMARK  116  A    between atoms: _282  and  _285
REMARK  117  A    between atoms: _285  and  _286
REMARK  118  A    between atoms: _291  and  _293
REMARK  119  A    between atoms: _293  and  _294
REMARK  120  A    between atoms: _293  and  _296
REMARK  121  A    between atoms: _296  and  _297
REMARK  122  A    between atoms: _297  and  _298
REMARK  123  A    between atoms: _298  and  _299
REMARK  124  A    between atoms: _308  and  _310
REMARK  125  A    between atoms: _310  and  _311
REMARK  126  A    between atoms: _310  and  _313
REMARK  127  A    between atoms: _313  and  _314
REMARK  128  A    between atoms: _317  and  _319
REMARK  129  A    between atoms: _319  and  _320
REMARK  130  A    between atoms: _319  and  _322
REMARK  131  A    between atoms: _322  and  _323
REMARK  132  A    between atoms: _326  and  _328
REMARK  133  A    between atoms: _328  and  _329
REMARK  134  A    between atoms: _328  and  _331
REMARK  135  A    between atoms: _331  and  _332
REMARK  136  A    between atoms: _335  and  _337
REMARK  137  A    between atoms: _337  and  _338
REMARK  138  A    between atoms: _337  and  _340
REMARK  139  A    between atoms: _340  and  _341
REMARK  140  A    between atoms: _344  and  _346
REMARK  141  A    between atoms: _346  and  _347
REMARK  142  A    between atoms: _349  and  _351
REMARK  143  A    between atoms: _351  and  _352
REMARK  144  A    between atoms: _355  and  _357
REMARK  145  A    between atoms: _357  and  _358
REMARK  146  A    between atoms: _357  and  _360
REMARK  147  A    between atoms: _360  and  _361
REMARK  148  A    between atoms: _364  and  _366
REMARK  149  A    between atoms: _366  and  _367
REMARK  150  A    between atoms: _366  and  _369
REMARK  151  A    between atoms: _369  and  _370
REMARK  152  A    between atoms: _373  and  _375
REMARK  153  A    between atoms: _375  and  _376
REMARK  154  A    between atoms: _375  and  _378
REMARK  155  A    between atoms: _378  and  _379
REMARK  156  A    between atoms: _382  and  _384
REMARK  157  A    between atoms: _384  and  _385
REMARK  158  A    between atoms: _384  and  _387
REMARK  159  A    between atoms: _390  and  _392
REMARK  160  A    between atoms: _392  and  _393
REMARK  161  A    between atoms: _392  and  _395
REMARK  162  A    between atoms: _395  and  _396
REMARK  163  A    between atoms: _399  and  _401
REMARK  164  A    between atoms: _401  and  _402
REMARK  165  A    between atoms: _401  and  _404
REMARK  166  A    between atoms: _404  and  _405
REMARK  167  A    between atoms: _405  and  _406
REMARK  168  A    between atoms: _406  and  _407
REMARK  169  A    between atoms: _407  and  _408
REMARK  170  A    between atoms: _412  and  _414
REMARK  171  A    between atoms: _414  and  _415
REMARK  172  A    between atoms: _414  and  _417
REMARK  173  A    between atoms: _417  and  _418
REMARK  174  A    between atoms: _418  and  _419
REMARK  175  A    between atoms: _421  and  _423
REMARK  176  A    between atoms: _423  and  _424
REMARK  177  A    between atoms: _423  and  _426
REMARK  178  A    between atoms: _426  and  _427
REMARK  179  A    between atoms: _430  and  _432
REMARK  180  A    between atoms: _432  and  _433
REMARK  181  A    between atoms: _435  and  _437
REMARK  182  A    between atoms: _437  and  _438
REMARK  183  A    between atoms: _440  and  _442
REMARK  184  A    between atoms: _442  and  _443
REMARK  185  A    between atoms: _442  and  _445
REMARK  186  A    between atoms: _445  and  _446
REMARK  187  A    between atoms: _449  and  _451
REMARK  188  A    between atoms: _451  and  _452
REMARK  189  A    between atoms: _454  and  _456
REMARK  190  A    between atoms: _456  and  _457
REMARK  191  A    between atoms: _459  and  _461
REMARK  192  A    between atoms: _461  and  _462
REMARK  193  A    between atoms: _461  and  _464
REMARK  194  A    between atoms: _464  and  _465
REMARK  195  A    between atoms: _468  and  _470
REMARK  196  A    between atoms: _470  and  _471
REMARK  197  A    between atoms: _470  and  _473
REMARK  198  A    between atoms: _476  and  _478
REMARK  199  A    between atoms: _478  and  _479
REMARK  200  A    between atoms: _478  and  _481
REMARK  201  A    between atoms: _481  and  _482
REMARK  202  A    between atoms: _486  and  _487
REMARK  203  A    between atoms: _492  and  _494
REMARK  204  A    between atoms: _494  and  _495
REMARK  205  A    between atoms: _494  and  _497
REMARK  206  A    between atoms: _497  and  _498
REMARK  207  A    between atoms: _502  and  _503
REMARK  208  A    between atoms: _508  and  _510
REMARK  209  A    between atoms: _510  and  _511
REMARK  210  A    between atoms: _510  and  _513
REMARK  211  A    between atoms: _516  and  _518
REMARK  212  A    between atoms: _518  and  _519
REMARK  213  A    between atoms: _518  and  _521
REMARK  214  A    between atoms: _521  and  _522
REMARK  215  A    between atoms: _527  and  _529
REMARK  216  A    between atoms: _529  and  _530
REMARK  217  A    between atoms: _529  and  _532
REMARK  218  A    between atoms: _532  and  _533
REMARK  219  A    between atoms: _536  and  _538
REMARK  220  A    between atoms: _538  and  _539
REMARK  221  A    between atoms: _538  and  _541
REMARK  222  A    between atoms: _541  and  _542
REMARK  223  A    between atoms: _545  and  _547
REMARK  224  A    between atoms: _547  and  _548
REMARK  225  A    between atoms: _550  and  _552
REMARK  226  A    between atoms: _552  and  _553
REMARK  227  A    between atoms: _552  and  _555
REMARK  228  A    between atoms: _555  and  _556
REMARK  229  A    between atoms: _556  and  _557
REMARK  230  A    between atoms: _557  and  _558
REMARK  231  A    between atoms: _567  and  _569
REMARK  232  A    between atoms: _569  and  _570
REMARK  233  A    between atoms: _569  and  _572
REMARK  234  A    between atoms: _572  and  _573
REMARK                            x       y       z     vdW  Elec       q    Type
REMARK                         _______ _______ _______ _____ _____    ______ ____
ROOT
ATOM      1  O   HOH     1     -18.356  26.737 -20.208  0.00  0.00    +0.000 OA
ENDROOT
TORSDOF 0
REMARK  Name = ../refined-set-2016/3bgc/3bgc_pocket.pdb
REMARK  234 active torsions:
REMARK  status: ('A' for Active; 'I' for Inactive)
REMARK    1  A    between atoms: _1  and  _3
REMARK    2  A    between atoms: _3  and  _4
REMARK    3  A    between atoms: _3  and  _6
REMARK    4  A    between atoms: _6  and  _7
REMARK    5  A    between atoms: _7  and  _8
REMARK    6  A    between atoms: _8  and  _9
REMARK    7  A    between atoms: _18  and  _20
REMARK    8  A    between atoms: _20  and  _21
REMARK    9  A    between atoms: _20  and  _23
REMARK   10  A    between atoms: _23  and  _24
REMARK   11  A    between atoms: _27  and  _29
REMARK   12  A    between atoms: _29  and  _30
REMARK   13  A    between atoms: _29  and  _32
REMARK   14  A    between atoms: _32  and  _33
REMARK   15  A    between atoms: _36  and  _38
REMARK   16  A    between atoms: _38  and  _39
REMARK   17  A    between atoms: _38  and  _41
REMARK   18  A    between atoms: _41  and  _42
REMARK   19  A    between atoms: _45  and  _47
REMARK   20  A    between atoms: _47  and  _48
REMARK   21  A    between atoms: _50  and  _52
REMARK   22  A    between atoms: _52  and  _53
REMARK   23  A    between atoms: _56  and  _58
REMARK   24  A    between atoms: _58  and  _59
REMARK   25  A    between atoms: _58  and  _61
REMARK   26  A    between atoms: _61  and  _62
REMARK   27  A    between atoms: _65  and  _67
REMARK   28  A    between atoms: _67  and  _68
REMARK   29  A    between atoms: _67  and  _70
REMARK   30  A    between atoms: _70  and  _71
REMARK   31  A    between atoms: _74  and  _76
REMARK   32  A    between atoms: _76  and  _77
REMARK   33  A    between atoms: _76  and  _79
REMARK   34  A    between atoms: _79  and  _80
REMARK   35  A    between atoms: _83  and  _85
REMARK   36  A    between atoms: _85  and  _86
REMARK   37  A    between atoms: _85  and  _88
REMARK   38  A    between atoms: _91  and  _93
REMARK   39  A    between atoms: _93  and  _94
REMARK   40  A    between atoms: _93  and  _96
REMARK   41  A    between atoms: _96  and  _97
REMARK   42  A    between atoms: _100  and  _102
REMARK   43  A    between atoms: _102  and  _103
REMARK   44  A    between atoms: _102  and  _105
REMARK   45  A    between atoms: _105  and  _106
REMARK   46  A    between atoms: _106  and  _107
REMARK   47  A    between atoms: _107  and  _108
REMARK   48  A    between atoms: _108  and  _109
REMARK   49  A    between atoms: _113  and  _115
REMARK   50  A    between atoms: _115  and  _116
REMARK   51  A    between atoms: _115  and  _118
REMARK   52  A    between atoms: _118  and  _119
REMARK   53  A    between atoms: _119  and  _120
REMARK   54  A    between atoms: _122  and  _124
REMARK   55  A    between atoms: _124  and  _125
REMARK   56  A    between atoms: _124  and  _127
REMARK   57  A    between atoms: _127  and  _128
REMARK   58  A    between atoms: _131  and  _133
REMARK   59  A    between atoms: _133  and  _134
REMARK   60  A    between atoms: _136  and  _138
REMARK   61  A    between atoms: _138  and  _139
REMARK   62  A    between atoms: _141  and  _143
REMARK   63  A    between atoms: _143  and  _144
REMARK   64  A    between atoms: _143  and  _146
REMARK   65  A    between atoms: _146  and  _147
REMARK   66  A    between atoms: _150  and  _152
REMARK   67  A    between atoms: _152  and  _153
REMARK   68  A    between atoms: _155  and  _157
REMARK   69  A    between atoms: _157  and  _158
REMARK   70  A    between atoms: _160  and  _162
REMARK   71  A    between atoms: _162  and  _163
REMARK   72  A    between atoms: _162  and  _165
REMARK   73  A    between atoms: _165  and  _166
REMARK   74  A    between atoms: _172  and  _174
REMARK   75  A    between atoms: _174  and  _175
REMARK   76  A    between atoms: _174  and  _177
REMARK   77  A    between atoms: _177  and  _178
REMARK   78  A    between atoms: _181  and  _183
REMARK   79  A    between atoms: _183  and  _184
REMARK   80  A    between atoms: _183  and  _186
REMARK   81  A    between atoms: _189  and  _191
REMARK   82  A    between atoms: _191  and  _192
REMARK   83  A    between atoms: _191  and  _194
REMARK   84  A    between atoms: _194  and  _195
REMARK   85  A    between atoms: _199  and  _200
REMARK   86  A    between atoms: _205  and  _207
REMARK   87  A    between atoms: _207  and  _208
REMARK   88  A    between atoms: _207  and  _210
REMARK   89  A    between atoms: _210  and  _211
REMARK   90  A    between atoms: _215  and  _216
REMARK   91  A    between atoms: _221  and  _223
REMARK   92  A    between atoms: _223  and  _224
REMARK   93  A    between atoms: _223  and  _226
REMARK   94  A    between atoms: _229  and  _231
REMARK   95  A    between atoms: _231  and  _232
REMARK   96  A    between atoms: _231  and  _234
REMARK   97  A    between atoms: _234  and  _235
REMARK   98  A    between atoms: _240  and  _242
REMARK   99  A    between atoms: _242  and  _243
REMARK  100  A    between atoms: _242  and  _245
REMARK  101  A    between atoms: _245  and  _246
REMARK  102  A    between atoms: _249  and  _251
REMARK  103  A    between atoms: _251  and  _252
REMARK  104  A    between atoms: _251  and  _254
REMARK  105  A    between atoms: _254  and  _255
REMARK  106  A    between atoms: _258  and  _260
REMARK  107  A    between atoms: _260  and  _261
REMARK  108  A    between atoms: _263  and  _265
REMARK  109  A    between atoms: _265  and  _266
REMARK  110  A    between atoms: _265  and  _268
REMARK  111  A    between atoms: _268  and  _269
REMARK  112  A    between atoms: _269  and  _270
REMARK  113  A    between atoms: _270  and  _271
REMARK  114  A    between atoms: _280  and  _282
REMARK  115  A    between atoms: _282  and  _283
REMARK  116  A    between atoms: _282  and  _285
REMARK  117  A    between atoms: _285  and  _286
REMARK  118  A    between atoms: _291  and  _293
REMARK  119  A    between atoms: _293  and  _294
REMARK  120  A    between atoms: _293  and  _296
REMARK  121  A    between atoms: _296  and  _297
REMARK  122  A    between atoms: _297  and  _298
REMARK  123  A    between atoms: _298  and  _299
REMARK  124  A    between atoms: _308  and  _310
REMARK  125  A    between atoms: _310  and  _311
REMARK  126  A    between atoms: _310  and  _313
REMARK  127  A    between atoms: _313  and  _314
REMARK  128  A    between atoms: _317  and  _319
REMARK  129  A    between atoms: _319  and  _320
REMARK  130  A    between atoms: _319  and  _322
REMARK  131  A    between atoms: _322  and  _323
REMARK  132  A    between atoms: _326  and  _328
REMARK  133  A    between atoms: _328  and  _329
REMARK  134  A    between atoms: _328  and  _331
REMARK  135  A    between atoms: _331  and  _332
REMARK  136  A    between atoms: _335  and  _337
REMARK  137  A    between atoms: _337  and  _338
REMARK  138  A    between atoms: _337  and  _340
REMARK  139  A    between atoms: _340  and  _341
REMARK  140  A    between atoms: _344  and  _346
REMARK  141  A    between atoms: _346  and  _347
REMARK  142  A    between atoms: _349  and  _351
REMARK  143  A    between atoms: _351  and  _352
REMARK  144  A    between atoms: _355  and  _357
REMARK  145  A    between atoms: _357  and  _358
REMARK  146  A    between atoms: _357  and  _360
REMARK  147  A    between atoms: _360  and  _361
REMARK  148  A    between atoms: _364  and  _366
REMARK  149  A    between atoms: _366  and  _367
REMARK  150  A    between atoms: _366  and  _369
REMARK  151  A    between atoms: _369  and  _370
REMARK  152  A    between atoms: _373  and  _375
REMARK  153  A    between atoms: _375  and  _376
REMARK  154  A    between atoms: _375  and  _378
REMARK  155  A    between atoms: _378  and  _379
REMARK  156  A    between atoms: _382  and  _384
REMARK  157  A    between atoms: _384  and  _385
REMARK  158  A    between atoms: _384  and  _387
REMARK  159  A    between atoms: _390  and  _392
REMARK  160  A    between atoms: _392  and  _393
REMARK  161  A    between atoms: _392  and  _395
REMARK  162  A    between atoms: _395  and  _396
REMARK  163  A    between atoms: _399  and  _401
REMARK  164  A    between atoms: _401  and  _402
REMARK  165  A    between atoms: _401  and  _404
REMARK  166  A    between atoms: _404  and  _405
REMARK  167  A    between atoms: _405  and  _406
REMARK  168  A    between atoms: _406  and  _407
REMARK  169  A    between atoms: _407  and  _408
REMARK  170  A    between atoms: _412  and  _414
REMARK  171  A    between atoms: _414  and  _415
REMARK  172  A    between atoms: _414  and  _417
REMARK  173  A    between atoms: _417  and  _418
REMARK  174  A    between atoms: _418  and  _419
REMARK  175  A    between atoms: _421  and  _423
REMARK  176  A    between atoms: _423  and  _424
REMARK  177  A    between atoms: _423  and  _426
REMARK  178  A    between atoms: _426  and  _427
REMARK  179  A    between atoms: _430  and  _432
REMARK  180  A    between atoms: _432  and  _433
REMARK  181  A    between atoms: _435  and  _437
REMARK  182  A    between atoms: _437  and  _438
REMARK  183  A    between atoms: _440  and  _442
REMARK  184  A    between atoms: _442  and  _443
REMARK  185  A    between atoms: _442  and  _445
REMARK  186  A    between atoms: _445  and  _446
REMARK  187  A    between atoms: _449  and  _451
REMARK  188  A    between atoms: _451  and  _452
REMARK  189  A    between atoms: _454  and  _456
REMARK  190  A    between atoms: _456  and  _457
REMARK  191  A    between atoms: _459  and  _461
REMARK  192  A    between atoms: _461  and  _462
REMARK  193  A    between atoms: _461  and  _464
REMARK  194  A    between atoms: _464  and  _465
REMARK  195  A    between atoms: _468  and  _470
REMARK  196  A    between atoms: _470  and  _471
REMARK  197  A    between atoms: _470  and  _473
REMARK  198  A    between atoms: _476  and  _478
REMARK  199  A    between atoms: _478  and  _479
REMARK  200  A    between atoms: _478  and  _481
REMARK  201  A    between atoms: _481  and  _482
REMARK  202  A    between atoms: _486  and  _487
REMARK  203  A    between atoms: _492  and  _494
REMARK  204  A    between atoms: _494  and  _495
REMARK  205  A    between atoms: _494  and  _497
REMARK  206  A    between atoms: _497  and  _498
REMARK  207  A    between atoms: _502  and  _503
REMARK  208  A    between atoms: _508  and  _510
REMARK  209  A    between atoms: _510  and  _511
REMARK  210  A    between atoms: _510  and  _513
REMARK  211  A    between atoms: _516  and  _518
REMARK  212  A    between atoms: _518  and  _519
REMARK  213  A    between atoms: _518  and  _521
REMARK  214  A    between atoms: _521  and  _522
REMARK  215  A    between atoms: _527  and  _529
REMARK  216  A    between atoms: _529  and  _530
REMARK  217  A    between atoms: _529  and  _532
REMARK  218  A    between atoms: _532  and  _533
REMARK  219  A    between atoms: _536  and  _538
REMARK  220  A    between atoms: _538  and  _539
REMARK  221  A    between atoms: _538  and  _541
REMARK  222  A    between atoms: _541  and  _542
REMARK  223  A    between atoms: _545  and  _547
REMARK  224  A    between atoms: _547  and  _548
REMARK  225  A    between atoms: _550  and  _552
REMARK  226  A    between atoms: _552  and  _553
REMARK  227  A    between atoms: _552  and  _555
REMARK  228  A    between atoms: _555  and  _556
REMARK  229  A    between atoms: _556  and  _557
REMARK  230  A    between atoms: _557  and  _558
REMARK  231  A    between atoms: _567  and  _569
REMARK  232  A    between atoms: _569  and  _570
REMARK  233  A    between atoms: _569  and  _572
REMARK  234  A    between atoms: _572  and  _573
REMARK                            x       y       z     vdW  Elec       q    Type
REMARK                         _______ _______ _______ _____ _____    ______ ____
ROOT
ATOM      1  O   HOH     1     -17.614  25.042 -16.044  0.00  0.00    +0.000 OA
ENDROOT
TORSDOF 0
