REMARK  Name = ../refined-set-2016/3ckp/3ckp_pocket.pdb
REMARK  249 active torsions:
REMARK  status: ('A' for Active; 'I' for Inactive)
REMARK    1  A    between atoms: _1  and  _3
REMARK    2  A    between atoms: _3  and  _4
REMARK    3  A    between atoms: _3  and  _6
REMARK    4  A    between atoms: _6  and  _7
REMARK    5  A    between atoms: _7  and  _8
REMARK    6  A    between atoms: _8  and  _9
REMARK    7  A    between atoms: _9  and  _10
REMARK    8  A    between atoms: _14  and  _16
REMARK    9  A    between atoms: _16  and  _17
REMARK   10  A    between atoms: _16  and  _19
REMARK   11  A    between atoms: _19  and  _20
REMARK   12  A    between atoms: _22  and  _24
REMARK   13  A    between atoms: _24  and  _25
REMARK   14  A    between atoms: _27  and  _29
REMARK   15  A    between atoms: _29  and  _30
REMARK   16  A    between atoms: _29  and  _32
REMARK   17  A    between atoms: _32  and  _33
REMARK   18  A    between atoms: _33  and  _34
REMARK   19  A    between atoms: _39  and  _41
REMARK   20  A    between atoms: _41  and  _42
REMARK   21  A    between atoms: _44  and  _46
REMARK   22  A    between atoms: _46  and  _47
REMARK   23  A    between atoms: _46  and  _49
REMARK   24  A    between atoms: _49  and  _50
REMARK   25  A    between atoms: _55  and  _56
REMARK   26  A    between atoms: _58  and  _60
REMARK   27  A    between atoms: _60  and  _61
REMARK   28  A    between atoms: _60  and  _63
REMARK   29  A    between atoms: _63  and  _64
REMARK   30  A    between atoms: _69  and  _70
REMARK   31  A    between atoms: _72  and  _74
REMARK   32  A    between atoms: _74  and  _75
REMARK   33  A    between atoms: _74  and  _77
REMARK   34  A    between atoms: _77  and  _78
REMARK   35  A    between atoms: _81  and  _83
REMARK   36  A    between atoms: _83  and  _84
REMARK   37  A    between atoms: _83  and  _86
REMARK   38  A    between atoms: _89  and  _91
REMARK   39  A    between atoms: _91  and  _92
REMARK   40  A    between atoms: _91  and  _94
REMARK   41  A    between atoms: _94  and  _95
REMARK   42  A    between atoms: _98  and  _100
REMARK   43  A    between atoms: _100  and  _101
REMARK   44  A    between atoms: _100  and  _103
REMARK   45  A    between atoms: _103  and  _104
REMARK   46  A    between atoms: _107  and  _109
REMARK   47  A    between atoms: _109  and  _110
REMARK   48  A    between atoms: _112  and  _114
REMARK   49  A    between atoms: _114  and  _115
REMARK   50  A    between atoms: _114  and  _117
REMARK   51  A    between atoms: _117  and  _118
REMARK   52  A    between atoms: _120  and  _122
REMARK   53  A    between atoms: _122  and  _123
REMARK   54  A    between atoms: _122  and  _125
REMARK   55  A    between atoms: _125  and  _126
REMARK   56  A    between atoms: _128  and  _130
REMARK   57  A    between atoms: _130  and  _131
REMARK   58  A    between atoms: _130  and  _133
REMARK   59  A    between atoms: _133  and  _134
REMARK   60  A    between atoms: _139  and  _141
REMARK   61  A    between atoms: _141  and  _142
REMARK   62  A    between atoms: _141  and  _144
REMARK   63  A    between atoms: _144  and  _145
REMARK   64  A    between atoms: _150  and  _151
REMARK   65  A    between atoms: _153  and  _155
REMARK   66  A    between atoms: _155  and  _156
REMARK   67  A    between atoms: _155  and  _158
REMARK   68  A    between atoms: _162  and  _163
REMARK   69  A    between atoms: _168  and  _170
REMARK   70  A    between atoms: _170  and  _171
REMARK   71  A    between atoms: _170  and  _173
REMARK   72  A    between atoms: _173  and  _174
REMARK   73  A    between atoms: _179  and  _180
REMARK   74  A    between atoms: _182  and  _184
REMARK   75  A    between atoms: _184  and  _185
REMARK   76  A    between atoms: _184  and  _187
REMARK   77  A    between atoms: _187  and  _188
REMARK   78  A    between atoms: _191  and  _193
REMARK   79  A    between atoms: _193  and  _194
REMARK   80  A    between atoms: _193  and  _196
REMARK   81  A    between atoms: _196  and  _197
REMARK   82  A    between atoms: _197  and  _198
REMARK   83  A    between atoms: _203  and  _205
REMARK   84  A    between atoms: _205  and  _206
REMARK   85  A    between atoms: _208  and  _210
REMARK   86  A    between atoms: _210  and  _211
REMARK   87  A    between atoms: _210  and  _213
REMARK   88  A    between atoms: _213  and  _214
REMARK   89  A    between atoms: _214  and  _215
REMARK   90  A    between atoms: _215  and  _216
REMARK   91  A    between atoms: _216  and  _217
REMARK   92  A    between atoms: _221  and  _223
REMARK   93  A    between atoms: _223  and  _224
REMARK   94  A    between atoms: _223  and  _226
REMARK   95  A    between atoms: _226  and  _227
REMARK   96  A    between atoms: _237  and  _239
REMARK   97  A    between atoms: _239  and  _240
REMARK   98  A    between atoms: _239  and  _242
REMARK   99  A    between atoms: _242  and  _243
REMARK  100  A    between atoms: _246  and  _248
REMARK  101  A    between atoms: _248  and  _249
REMARK  102  A    between atoms: _248  and  _251
REMARK  103  A    between atoms: _251  and  _252
REMARK  104  A    between atoms: _252  and  _253
REMARK  105  A    between atoms: _253  and  _254
REMARK  106  A    between atoms: _254  and  _255
REMARK  107  A    between atoms: _259  and  _261
REMARK  108  A    between atoms: _261  and  _262
REMARK  109  A    between atoms: _261  and  _264
REMARK  110  A    between atoms: _264  and  _265
REMARK  111  A    between atoms: _271  and  _273
REMARK  112  A    between atoms: _273  and  _274
REMARK  113  A    between atoms: _273  and  _276
REMARK  114  A    between atoms: _276  and  _277
REMARK  115  A    between atoms: _283  and  _285
REMARK  116  A    between atoms: _285  and  _286
REMARK  117  A    between atoms: _285  and  _288
REMARK  118  A    between atoms: _288  and  _289
REMARK  119  A    between atoms: _292  and  _294
REMARK  120  A    between atoms: _294  and  _295
REMARK  121  A    between atoms: _294  and  _297
REMARK  122  A    between atoms: _297  and  _298
REMARK  123  A    between atoms: _300  and  _302
REMARK  124  A    between atoms: _302  and  _303
REMARK  125  A    between atoms: _302  and  _305
REMARK  126  A    between atoms: _305  and  _306
REMARK  127  A    between atoms: _316  and  _318
REMARK  128  A    between atoms: _318  and  _319
REMARK  129  A    between atoms: _321  and  _323
REMARK  130  A    between atoms: _323  and  _324
REMARK  131  A    between atoms: _323  and  _326
REMARK  132  A    between atoms: _326  and  _327
REMARK  133  A    between atoms: _330  and  _332
REMARK  134  A    between atoms: _332  and  _333
REMARK  135  A    between atoms: _335  and  _337
REMARK  136  A    between atoms: _337  and  _338
REMARK  137  A    between atoms: _337  and  _340
REMARK  138  A    between atoms: _340  and  _341
REMARK  139  A    between atoms: _344  and  _346
REMARK  140  A    between atoms: _346  and  _347
REMARK  141  A    between atoms: _350  and  _352
REMARK  142  A    between atoms: _352  and  _353
REMARK  143  A    between atoms: _352  and  _355
REMARK  144  A    between atoms: _355  and  _356
REMARK  145  A    between atoms: _361  and  _362
REMARK  146  A    between atoms: _364  and  _366
REMARK  147  A    between atoms: _366  and  _367
REMARK  148  A    between atoms: _366  and  _369
REMARK  149  A    between atoms: _369  and  _370
REMARK  150  A    between atoms: _370  and  _371
REMARK  151  A    between atoms: _374  and  _376
REMARK  152  A    between atoms: _376  and  _377
REMARK  153  A    between atoms: _376  and  _379
REMARK  154  A    between atoms: _379  and  _380
REMARK  155  A    between atoms: _383  and  _385
REMARK  156  A    between atoms: _385  and  _386
REMARK  157  A    between atoms: _389  and  _391
REMARK  158  A    between atoms: _391  and  _392
REMARK  159  A    between atoms: _391  and  _394
REMARK  160  A    between atoms: _394  and  _395
REMARK  161  A    between atoms: _395  and  _396
REMARK  162  A    between atoms: _396  and  _397
REMARK  163  A    between atoms: _406  and  _408
REMARK  164  A    between atoms: _408  and  _409
REMARK  165  A    between atoms: _408  and  _411
REMARK  166  A    between atoms: _411  and  _412
REMARK  167  A    between atoms: _415  and  _417
REMARK  168  A    between atoms: _417  and  _418
REMARK  169  A    between atoms: _417  and  _420
REMARK  170  A    between atoms: _420  and  _421
REMARK  171  A    between atoms: _431  and  _433
REMARK  172  A    between atoms: _433  and  _434
REMARK  173  A    between atoms: _433  and  _436
REMARK  174  A    between atoms: _436  and  _437
REMARK  175  A    between atoms: _442  and  _443
REMARK  176  A    between atoms: _445  and  _447
REMARK  177  A    between atoms: _447  and  _448
REMARK  178  A    between atoms: _447  and  _450
REMARK  179  A    between atoms: _450  and  _451
REMARK  180  A    between atoms: _451  and  _452
REMARK  181  A    between atoms: _452  and  _453
REMARK  182  A    between atoms: _453  and  _454
REMARK  183  A    between atoms: _458  and  _460
REMARK  184  A    between atoms: _460  and  _461
REMARK  185  A    between atoms: _460  and  _463
REMARK  186  A    between atoms: _463  and  _464
REMARK  187  A    between atoms: _467  and  _469
REMARK  188  A    between atoms: _469  and  _470
REMARK  189  A    between atoms: _469  and  _472
REMARK  190  A    between atoms: _475  and  _477
REMARK  191  A    between atoms: _477  and  _478
REMARK  192  A    between atoms: _477  and  _480
REMARK  193  A    between atoms: _480  and  _481
REMARK  194  A    between atoms: _484  and  _486
REMARK  195  A    between atoms: _486  and  _487
REMARK  196  A    between atoms: _486  and  _489
REMARK  197  A    between atoms: _489  and  _490
REMARK  198  A    between atoms: _492  and  _494
REMARK  199  A    between atoms: _494  and  _495
REMARK  200  A    between atoms: _497  and  _499
REMARK  201  A    between atoms: _499  and  _500
REMARK  202  A    between atoms: _499  and  _502
REMARK  203  A    between atoms: _502  and  _503
REMARK  204  A    between atoms: _506  and  _508
REMARK  205  A    between atoms: _508  and  _509
REMARK  206  A    between atoms: _508  and  _511
REMARK  207  A    between atoms: _511  and  _512
REMARK  208  A    between atoms: _515  and  _517
REMARK  209  A    between atoms: _517  and  _518
REMARK  210  A    between atoms: _517  and  _520
REMARK  211  A    between atoms: _520  and  _521
REMARK  212  A    between atoms: _526  and  _528
REMARK  213  A    between atoms: _528  and  _529
REMARK  214  A    between atoms: _528  and  _531
REMARK  215  A    between atoms: _531  and  _532
REMARK  216  A    between atoms: _535  and  _537
REMARK  217  A    between atoms: _537  and  _538
REMARK  218  A    between atoms: _537  and  _540
REMARK  219  A    between atoms: _540  and  _541
REMARK  220  A    between atoms: _541  and  _542
REMARK  221  A    between atoms: _542  and  _543
REMARK  222  A    between atoms: _552  and  _554
REMARK  223  A    between atoms: _554  and  _555
REMARK  224  A    between atoms: _554  and  _557
REMARK  225  A    between atoms: _557  and  _558
REMARK  226  A    between atoms: _558  and  _559
REMARK  227  A    between atoms: _559  and  _560
REMARK  228  A    between atoms: _569  and  _571
REMARK  229  A    between atoms: _571  and  _572
REMARK  230  A    between atoms: _571  and  _574
REMARK  231  A    between atoms: _574  and  _575
REMARK  232  A    between atoms: _575  and  _576
REMARK  233  A    between atoms: _576  and  _577
REMARK  234  A    between atoms: _577  and  _578
REMARK  235  A    between atoms: _582  and  _584
REMARK  236  A    between atoms: _584  and  _585
REMARK  237  A    between atoms: _584  and  _587
REMARK  238  A    between atoms: _587  and  _588
REMARK  239  A    between atoms: _590  and  _592
REMARK  240  A    between atoms: _592  and  _593
REMARK  241  A    between atoms: _592  and  _595
REMARK  242  A    between atoms: _595  and  _596
REMARK  243  A    between atoms: _599  and  _601
REMARK  244  A    between atoms: _601  and  _602
REMARK  245  A    between atoms: _601  and  _604
REMARK  246  A    between atoms: _607  and  _609
REMARK  247  A    between atoms: _609  and  _610
REMARK  248  A    between atoms: _612  and  _614
REMARK  249  A    between atoms: _614  and  _615
REMARK                            x       y       z     vdW  Elec       q    Type
REMARK                         _______ _______ _______ _____ _____    ______ ____
ROOT
ATOM      1  CA  GLN A   4      24.451   5.002  18.501  0.00  0.00    +0.149 C 
ENDROOT
BRANCH   1   2
ATOM      2  C   GLN A   4      24.904   3.671  17.874  0.00  0.00    +0.241 C 
ATOM      3  O   GLN A   4      25.954   3.148  18.237  0.00  0.00    -0.273 OA
ATOM      4  N   GLY A   5      24.123   3.135  16.937  0.00  0.00    -0.295 N 
ATOM      5  H   GLY A   5      23.238   3.615  16.677  0.00  0.00    +0.150 HD
BRANCH   4   6
ATOM      6  CA  GLY A   5      24.484   1.889  16.268  0.00  0.00    +0.176 C 
BRANCH   6   7
ATOM      7  C   GLY A   5      24.166   0.551  16.940  0.00  0.00    +0.243 C 
ATOM      8  O   GLY A   5      23.847   0.483  18.137  0.00  0.00    -0.273 OA
ATOM      9  N   TYR A   6      24.251  -0.525  16.154  0.00  0.00    -0.297 N 
ATOM     10  H   TYR A   6      24.500  -0.402  15.152  0.00  0.00    +0.150 HD
BRANCH   9  11
ATOM     11  CA  TYR A   6      24.005  -1.862  16.662  0.00  0.00    +0.153 C 
BRANCH  11  12
ATOM     12  C   TYR A   6      25.327  -2.591  16.816  0.00  0.00    +0.241 C 
ATOM     13  N   TYR A   7      25.472  -3.338  17.902  0.00  0.00    -0.298 N 
ATOM     14  H   TYR A   7      24.693  -3.417  18.586  0.00  0.00    +0.150 HD
ATOM     15  O   TYR A   6      26.201  -2.498  15.960  0.00  0.00    -0.273 OA
BRANCH  13  16
ATOM     16  CA  TYR A   7      26.722  -4.047  18.136  0.00  0.00    +0.141 C 
BRANCH  16  17
ATOM     17  C   TYR A   7      26.515  -5.500  18.545  0.00  0.00    +0.227 C 
ATOM     18  O   TYR A   7      25.496  -5.855  19.131  0.00  0.00    -0.286 OA
ENDBRANCH  16  17
BRANCH  16  19
ATOM     19  CB  TYR A   7      27.544  -3.304  19.199  0.00  0.00    +0.054 C 
BRANCH  19  20
ATOM     20  CG  TYR A   7      26.877  -3.218  20.565  0.00  0.00    -0.020 A 
ATOM     21  CD2 TYR A   7      26.688  -4.360  21.348  0.00  0.00    -0.001 A 
ATOM     22  CE2 TYR A   7      26.091  -4.278  22.599  0.00  0.00    +0.036 A 
ATOM     23  CZ  TYR A   7      25.675  -3.049  23.071  0.00  0.00    +0.134 A 
ATOM     24  CE1 TYR A   7      25.848  -1.904  22.313  0.00  0.00    +0.036 A 
ATOM     25  CD1 TYR A   7      26.443  -1.991  21.076  0.00  0.00    -0.001 A 
BRANCH  23  26
ATOM     26  OH  TYR A   7      25.075  -2.965  24.303  0.00  0.00    -0.506 OA
ATOM     27  HH  TYR A   7      25.030  -3.867  24.709  0.00  0.00    +0.292 HD
ENDBRANCH  23  26
ENDBRANCH  19  20
ENDBRANCH  16  19
ENDBRANCH  13  16
ENDBRANCH  11  12
BRANCH  11  28
ATOM     28  CB  TYR A   6      23.124  -2.653  15.714  0.00  0.00    +0.055 C 
BRANCH  28  29
ATOM     29  CG  TYR A   6      21.754  -2.075  15.462  0.00  0.00    -0.020 A 
ATOM     30  CD2 TYR A   6      20.630  -2.593  16.114  0.00  0.00    -0.001 A 
ATOM     31  CE2 TYR A   6      19.349  -2.084  15.865  0.00  0.00    +0.036 A 
ATOM     32  CZ  TYR A   6      19.201  -1.045  14.956  0.00  0.00    +0.134 A 
ATOM     33  CE1 TYR A   6      20.309  -0.516  14.293  0.00  0.00    +0.036 A 
ATOM     34  CD1 TYR A   6      21.574  -1.030  14.552  0.00  0.00    -0.001 A 
BRANCH  32  35
ATOM     35  OH  TYR A   6      17.950  -0.518  14.729  0.00  0.00    -0.506 OA
ATOM     36  HH  TYR A   6      18.016   0.209  14.060  0.00  0.00    +0.292 HD
ENDBRANCH  32  35
ENDBRANCH  28  29
ENDBRANCH  11  28
ENDBRANCH   9  11
ENDBRANCH   6   7
ENDBRANCH   4   6
ENDBRANCH   1   2
BRANCH   1  38
ATOM     37  C   GLY A   3      22.725   6.381  17.464  0.00  0.00    +0.243 C 
ATOM     38  N   GLN A   4      23.056   5.367  18.265  0.00  0.00    -0.297 N 
ATOM     39  H   GLN A   4      22.303   4.823  18.733  0.00  0.00    +0.150 HD
ATOM     40  O   GLY A   3      23.561   7.074  16.876  0.00  0.00    -0.273 OA
BRANCH  37  41
ATOM     41  CA  GLY A   3      21.247   6.677  17.283  0.00  0.00    +0.176 C 
BRANCH  41  44
ATOM     42  C   SER A   2      20.013   5.679  19.109  0.00  0.00    +0.243 C 
ATOM     43  O   SER A   2      20.457   6.501  19.913  0.00  0.00    -0.273 OA
ATOM     44  N   GLY A   3      20.341   5.678  17.820  0.00  0.00    -0.295 N 
ATOM     45  H   GLY A   3      19.944   4.953  17.189  0.00  0.00    +0.150 HD
BRANCH  42  46
ATOM     46  CA  SER A   2      19.035   4.585  19.556  0.00  0.00    +0.178 C 
BRANCH  46  48
ATOM     47  C   LYS A   1      20.755   3.345  20.749  0.00  0.00    +0.238 C 
ATOM     48  N   SER A   2      19.507   3.790  20.683  0.00  0.00    -0.295 N 
ATOM     49  H   SER A   2      18.848   3.566  21.456  0.00  0.00    +0.150 HD
ATOM     50  O   LYS A   1      21.592   3.570  19.879  0.00  0.00    -0.274 OA
BRANCH  47  51
ATOM     51  CA  LYS A   1      21.127   2.517  21.970  0.00  0.00    +0.145 C 
BRANCH  51  52
ATOM     52  N   LYS A   1      21.924   1.427  21.438  0.00  0.00    -0.238 NA
ATOM     53  H   LYS A   1      22.824   1.650  20.968  0.00  0.00    +0.142 HD
ENDBRANCH  51  52
BRANCH  51  54
ATOM     54  CB  LYS A   1      21.951   3.363  22.942  0.00  0.00    +0.026 C 
BRANCH  54  55
ATOM     55  CG  LYS A   1      22.201   2.738  24.318  0.00  0.00    -0.000 C 
BRANCH  55  56
ATOM     56  CD  LYS A   1      23.207   3.601  25.120  0.00  0.00    -0.024 C 
BRANCH  56  57
ATOM     57  CE  LYS A   1      23.310   3.208  26.602  0.00  0.00    -0.086 C 
BRANCH  57  58
ATOM     58  NZ  LYS A   1      23.792   1.811  26.829  0.00  0.00    +0.380 N 
ATOM     59  HZ1 LYS A   1      23.834   1.622  27.851  0.00  0.00    -0.089 HD
ATOM     60  HZ2 LYS A   1      24.740   1.701  26.415  0.00  0.00    -0.089 HD
ATOM     61  HZ3 LYS A   1      23.136   1.142  26.378  0.00  0.00    -0.089 HD
ENDBRANCH  57  58
ENDBRANCH  56  57
ENDBRANCH  55  56
ENDBRANCH  54  55
ENDBRANCH  51  54
ENDBRANCH  47  51
ENDBRANCH  46  48
BRANCH  46  62
ATOM     62  CB  SER A   2      17.677   5.216  19.893  0.00  0.00    +0.166 C 
BRANCH  62  63
ATOM     63  OG  SER A   2      17.128   5.904  18.773  0.00  0.00    -0.380 OA
ATOM     64  H   SER A   2      16.255   6.298  19.024  0.00  0.00    +0.211 HD
ENDBRANCH  62  63
ENDBRANCH  46  62
ENDBRANCH  42  46
ENDBRANCH  41  44
ENDBRANCH  37  41
ENDBRANCH   1  38
BRANCH   1  65
ATOM     65  CB  GLN A   4      24.737   4.957  19.998  0.00  0.00    +0.039 C 
BRANCH  65  66
ATOM     66  CG  GLN A   4      24.450   6.247  20.750  0.00  0.00    +0.087 C 
BRANCH  66  67
ATOM     67  CD  GLN A   4      24.700   6.095  22.239  0.00  0.00    +0.219 C 
ATOM     68  NE2 GLN A   4      25.280   7.112  22.852  0.00  0.00    -0.329 N 
ATOM     69 HE21 GLN A   4      25.465   7.066  23.874  0.00  0.00    +0.145 HD
ATOM     70 HE22 GLN A   4      25.552   7.958  22.312  0.00  0.00    +0.145 HD
ATOM     71  OE1 GLN A   4      24.360   5.072  22.833  0.00  0.00    -0.275 OA
ENDBRANCH  66  67
ENDBRANCH  65  66
ENDBRANCH   1  65
TORSDOF 30
REMARK  Name = ../refined-set-2016/3ckp/3ckp_pocket.pdb
REMARK  249 active torsions:
REMARK  status: ('A' for Active; 'I' for Inactive)
REMARK    1  A    between atoms: _1  and  _3
REMARK    2  A    between atoms: _3  and  _4
REMARK    3  A    between atoms: _3  and  _6
REMARK    4  A    between atoms: _6  and  _7
REMARK    5  A    between atoms: _7  and  _8
REMARK    6  A    between atoms: _8  and  _9
REMARK    7  A    between atoms: _9  and  _10
REMARK    8  A    between atoms: _14  and  _16
REMARK    9  A    between atoms: _16  and  _17
REMARK   10  A    between atoms: _16  and  _19
REMARK   11  A    between atoms: _19  and  _20
REMARK   12  A    between atoms: _22  and  _24
REMARK   13  A    between atoms: _24  and  _25
REMARK   14  A    between atoms: _27  and  _29
REMARK   15  A    between atoms: _29  and  _30
REMARK   16  A    between atoms: _29  and  _32
REMARK   17  A    between atoms: _32  and  _33
REMARK   18  A    between atoms: _33  and  _34
REMARK   19  A    between atoms: _39  and  _41
REMARK   20  A    between atoms: _41  and  _42
REMARK   21  A    between atoms: _44  and  _46
REMARK   22  A    between atoms: _46  and  _47
REMARK   23  A    between atoms: _46  and  _49
REMARK   24  A    between atoms: _49  and  _50
REMARK   25  A    between atoms: _55  and  _56
REMARK   26  A    between atoms: _58  and  _60
REMARK   27  A    between atoms: _60  and  _61
REMARK   28  A    between atoms: _60  and  _63
REMARK   29  A    between atoms: _63  and  _64
REMARK   30  A    between atoms: _69  and  _70
REMARK   31  A    between atoms: _72  and  _74
REMARK   32  A    between atoms: _74  and  _75
REMARK   33  A    between atoms: _74  and  _77
REMARK   34  A    between atoms: _77  and  _78
REMARK   35  A    between atoms: _81  and  _83
REMARK   36  A    between atoms: _83  and  _84
REMARK   37  A    between atoms: _83  and  _86
REMARK   38  A    between atoms: _89  and  _91
REMARK   39  A    between atoms: _91  and  _92
REMARK   40  A    between atoms: _91  and  _94
REMARK   41  A    between atoms: _94  and  _95
REMARK   42  A    between atoms: _98  and  _100
REMARK   43  A    between atoms: _100  and  _101
REMARK   44  A    between atoms: _100  and  _103
REMARK   45  A    between atoms: _103  and  _104
REMARK   46  A    between atoms: _107  and  _109
REMARK   47  A    between atoms: _109  and  _110
REMARK   48  A    between atoms: _112  and  _114
REMARK   49  A    between atoms: _114  and  _115
REMARK   50  A    between atoms: _114  and  _117
REMARK   51  A    between atoms: _117  and  _118
REMARK   52  A    between atoms: _120  and  _122
REMARK   53  A    between atoms: _122  and  _123
REMARK   54  A    between atoms: _122  and  _125
REMARK   55  A    between atoms: _125  and  _126
REMARK   56  A    between atoms: _128  and  _130
REMARK   57  A    between atoms: _130  and  _131
REMARK   58  A    between atoms: _130  and  _133
REMARK   59  A    between atoms: _133  and  _134
REMARK   60  A    between atoms: _139  and  _141
REMARK   61  A    between atoms: _141  and  _142
REMARK   62  A    between atoms: _141  and  _144
REMARK   63  A    between atoms: _144  and  _145
REMARK   64  A    between atoms: _150  and  _151
REMARK   65  A    between atoms: _153  and  _155
REMARK   66  A    between atoms: _155  and  _156
REMARK   67  A    between atoms: _155  and  _158
REMARK   68  A    between atoms: _162  and  _163
REMARK   69  A    between atoms: _168  and  _170
REMARK   70  A    between atoms: _170  and  _171
REMARK   71  A    between atoms: _170  and  _173
REMARK   72  A    between atoms: _173  and  _174
REMARK   73  A    between atoms: _179  and  _180
REMARK   74  A    between atoms: _182  and  _184
REMARK   75  A    between atoms: _184  and  _185
REMARK   76  A    between atoms: _184  and  _187
REMARK   77  A    between atoms: _187  and  _188
REMARK   78  A    between atoms: _191  and  _193
REMARK   79  A    between atoms: _193  and  _194
REMARK   80  A    between atoms: _193  and  _196
REMARK   81  A    between atoms: _196  and  _197
REMARK   82  A    between atoms: _197  and  _198
REMARK   83  A    between atoms: _203  and  _205
REMARK   84  A    between atoms: _205  and  _206
REMARK   85  A    between atoms: _208  and  _210
REMARK   86  A    between atoms: _210  and  _211
REMARK   87  A    between atoms: _210  and  _213
REMARK   88  A    between atoms: _213  and  _214
REMARK   89  A    between atoms: _214  and  _215
REMARK   90  A    between atoms: _215  and  _216
REMARK   91  A    between atoms: _216  and  _217
REMARK   92  A    between atoms: _221  and  _223
REMARK   93  A    between atoms: _223  and  _224
REMARK   94  A    between atoms: _223  and  _226
REMARK   95  A    between atoms: _226  and  _227
REMARK   96  A    between atoms: _237  and  _239
REMARK   97  A    between atoms: _239  and  _240
REMARK   98  A    between atoms: _239  and  _242
REMARK   99  A    between atoms: _242  and  _243
REMARK  100  A    between atoms: _246  and  _248
REMARK  101  A    between atoms: _248  and  _249
REMARK  102  A    between atoms: _248  and  _251
REMARK  103  A    between atoms: _251  and  _252
REMARK  104  A    between atoms: _252  and  _253
REMARK  105  A    between atoms: _253  and  _254
REMARK  106  A    between atoms: _254  and  _255
REMARK  107  A    between atoms: _259  and  _261
REMARK  108  A    between atoms: _261  and  _262
REMARK  109  A    between atoms: _261  and  _264
REMARK  110  A    between atoms: _264  and  _265
REMARK  111  A    between atoms: _271  and  _273
REMARK  112  A    between atoms: _273  and  _274
REMARK  113  A    between atoms: _273  and  _276
REMARK  114  A    between atoms: _276  and  _277
REMARK  115  A    between atoms: _283  and  _285
REMARK  116  A    between atoms: _285  and  _286
REMARK  117  A    between atoms: _285  and  _288
REMARK  118  A    between atoms: _288  and  _289
REMARK  119  A    between atoms: _292  and  _294
REMARK  120  A    between atoms: _294  and  _295
REMARK  121  A    between atoms: _294  and  _297
REMARK  122  A    between atoms: _297  and  _298
REMARK  123  A    between atoms: _300  and  _302
REMARK  124  A    between atoms: _302  and  _303
REMARK  125  A    between atoms: _302  and  _305
REMARK  126  A    between atoms: _305  and  _306
REMARK  127  A    between atoms: _316  and  _318
REMARK  128  A    between atoms: _318  and  _319
REMARK  129  A    between atoms: _321  and  _323
REMARK  130  A    between atoms: _323  and  _324
REMARK  131  A    between atoms: _323  and  _326
REMARK  132  A    between atoms: _326  and  _327
REMARK  133  A    between atoms: _330  and  _332
REMARK  134  A    between atoms: _332  and  _333
REMARK  135  A    between atoms: _335  and  _337
REMARK  136  A    between atoms: _337  and  _338
REMARK  137  A    between atoms: _337  and  _340
REMARK  138  A    between atoms: _340  and  _341
REMARK  139  A    between atoms: _344  and  _346
REMARK  140  A    between atoms: _346  and  _347
REMARK  141  A    between atoms: _350  and  _352
REMARK  142  A    between atoms: _352  and  _353
REMARK  143  A    between atoms: _352  and  _355
REMARK  144  A    between atoms: _355  and  _356
REMARK  145  A    between atoms: _361  and  _362
REMARK  146  A    between atoms: _364  and  _366
REMARK  147  A    between atoms: _366  and  _367
REMARK  148  A    between atoms: _366  and  _369
REMARK  149  A    between atoms: _369  and  _370
REMARK  150  A    between atoms: _370  and  _371
REMARK  151  A    between atoms: _374  and  _376
REMARK  152  A    between atoms: _376  and  _377
REMARK  153  A    between atoms: _376  and  _379
REMARK  154  A    between atoms: _379  and  _380
REMARK  155  A    between atoms: _383  and  _385
REMARK  156  A    between atoms: _385  and  _386
REMARK  157  A    between atoms: _389  and  _391
REMARK  158  A    between atoms: _391  and  _392
REMARK  159  A    between atoms: _391  and  _394
REMARK  160  A    between atoms: _394  and  _395
REMARK  161  A    between atoms: _395  and  _396
REMARK  162  A    between atoms: _396  and  _397
REMARK  163  A    between atoms: _406  and  _408
REMARK  164  A    between atoms: _408  and  _409
REMARK  165  A    between atoms: _408  and  _411
REMARK  166  A    between atoms: _411  and  _412
REMARK  167  A    between atoms: _415  and  _417
REMARK  168  A    between atoms: _417  and  _418
REMARK  169  A    between atoms: _417  and  _420
REMARK  170  A    between atoms: _420  and  _421
REMARK  171  A    between atoms: _431  and  _433
REMARK  172  A    between atoms: _433  and  _434
REMARK  173  A    between atoms: _433  and  _436
REMARK  174  A    between atoms: _436  and  _437
REMARK  175  A    between atoms: _442  and  _443
REMARK  176  A    between atoms: _445  and  _447
REMARK  177  A    between atoms: _447  and  _448
REMARK  178  A    between atoms: _447  and  _450
REMARK  179  A    between atoms: _450  and  _451
REMARK  180  A    between atoms: _451  and  _452
REMARK  181  A    between atoms: _452  and  _453
REMARK  182  A    between atoms: _453  and  _454
REMARK  183  A    between atoms: _458  and  _460
REMARK  184  A    between atoms: _460  and  _461
REMARK  185  A    between atoms: _460  and  _463
REMARK  186  A    between atoms: _463  and  _464
REMARK  187  A    between atoms: _467  and  _469
REMARK  188  A    between atoms: _469  and  _470
REMARK  189  A    between atoms: _469  and  _472
REMARK  190  A    between atoms: _475  and  _477
REMARK  191  A    between atoms: _477  and  _478
REMARK  192  A    between atoms: _477  and  _480
REMARK  193  A    between atoms: _480  and  _481
REMARK  194  A    between atoms: _484  and  _486
REMARK  195  A    between atoms: _486  and  _487
REMARK  196  A    between atoms: _486  and  _489
REMARK  197  A    between atoms: _489  and  _490
REMARK  198  A    between atoms: _492  and  _494
REMARK  199  A    between atoms: _494  and  _495
REMARK  200  A    between atoms: _497  and  _499
REMARK  201  A    between atoms: _499  and  _500
REMARK  202  A    between atoms: _499  and  _502
REMARK  203  A    between atoms: _502  and  _503
REMARK  204  A    between atoms: _506  and  _508
REMARK  205  A    between atoms: _508  and  _509
REMARK  206  A    between atoms: _508  and  _511
REMARK  207  A    between atoms: _511  and  _512
REMARK  208  A    between atoms: _515  and  _517
REMARK  209  A    between atoms: _517  and  _518
REMARK  210  A    between atoms: _517  and  _520
REMARK  211  A    between atoms: _520  and  _521
REMARK  212  A    between atoms: _526  and  _528
REMARK  213  A    between atoms: _528  and  _529
REMARK  214  A    between atoms: _528  and  _531
REMARK  215  A    between atoms: _531  and  _532
REMARK  216  A    between atoms: _535  and  _537
REMARK  217  A    between atoms: _537  and  _538
REMARK  218  A    between atoms: _537  and  _540
REMARK  219  A    between atoms: _540  and  _541
REMARK  220  A    between atoms: _541  and  _542
REMARK  221  A    between atoms: _542  and  _543
REMARK  222  A    between atoms: _552  and  _554
REMARK  223  A    between atoms: _554  and  _555
REMARK  224  A    between atoms: _554  and  _557
REMARK  225  A    between atoms: _557  and  _558
REMARK  226  A    between atoms: _558  and  _559
REMARK  227  A    between atoms: _559  and  _560
REMARK  228  A    between atoms: _569  and  _571
REMARK  229  A    between atoms: _571  and  _572
REMARK  230  A    between atoms: _571  and  _574
REMARK  231  A    between atoms: _574  and  _575
REMARK  232  A    between atoms: _575  and  _576
REMARK  233  A    between atoms: _576  and  _577
REMARK  234  A    between atoms: _577  and  _578
REMARK  235  A    between atoms: _582  and  _584
REMARK  236  A    between atoms: _584  and  _585
REMARK  237  A    between atoms: _584  and  _587
REMARK  238  A    between atoms: _587  and  _588
REMARK  239  A    between atoms: _590  and  _592
REMARK  240  A    between atoms: _592  and  _593
REMARK  241  A    between atoms: _592  and  _595
REMARK  242  A    between atoms: _595  and  _596
REMARK  243  A    between atoms: _599  and  _601
REMARK  244  A    between atoms: _601  and  _602
REMARK  245  A    between atoms: _601  and  _604
REMARK  246  A    between atoms: _607  and  _609
REMARK  247  A    between atoms: _609  and  _610
REMARK  248  A    between atoms: _612  and  _614
REMARK  249  A    between atoms: _614  and  _615
REMARK                            x       y       z     vdW  Elec       q    Type
REMARK                         _______ _______ _______ _____ _____    ______ ____
ROOT
ATOM      1  C   THR A   4      29.087  -1.626   5.666  0.00  0.00    +0.243 C 
ATOM      2  N   GLY A   5      29.477  -0.489   6.237  0.00  0.00    -0.295 N 
ATOM      3  H   GLY A   5      29.381  -0.374   7.266  0.00  0.00    +0.150 HD
ATOM      4  O   THR A   4      29.181  -1.834   4.446  0.00  0.00    -0.273 OA
ENDROOT
BRANCH   2   5
ATOM      5  CA  GLY A   5      30.032   0.591   5.449  0.00  0.00    +0.176 C 
BRANCH   5   6
ATOM      6  C   GLY A   5      31.504   0.788   5.731  0.00  0.00    +0.243 C 
ATOM      7  N   SER A   6      32.176  -0.285   6.132  0.00  0.00    -0.295 N 
ATOM      8  H   SER A   6      31.668  -1.186   6.240  0.00  0.00    +0.150 HD
ATOM      9  O   GLY A   5      32.023   1.885   5.596  0.00  0.00    -0.273 OA
BRANCH   7  10
ATOM     10  CA  SER A   6      33.603  -0.240   6.425  0.00  0.00    +0.178 C 
BRANCH  10  11
ATOM     11  C   SER A   6      34.166  -1.612   6.220  0.00  0.00    +0.243 C 
ATOM     12  N   SER A   7      35.485  -1.698   6.207  0.00  0.00    -0.295 N 
ATOM     13  H   SER A   7      36.054  -0.838   6.342  0.00  0.00    +0.150 HD
ATOM     14  O   SER A   6      33.419  -2.579   6.102  0.00  0.00    -0.273 OA
BRANCH  12  15
ATOM     15  CA  SER A   7      36.155  -2.970   6.008  0.00  0.00    +0.178 C 
BRANCH  15  16
ATOM     16  C   SER A   7      37.308  -3.197   6.974  0.00  0.00    +0.243 C 
ATOM     17  N   ASN A   8      37.373  -2.382   8.029  0.00  0.00    -0.298 N 
ATOM     18  H   ASN A   8      36.669  -1.624   8.140  0.00  0.00    +0.150 HD
ATOM     19  O   SER A   7      38.133  -4.092   6.761  0.00  0.00    -0.273 OA
BRANCH  17  20
ATOM     20  CA  ASN A   8      38.423  -2.546   9.028  0.00  0.00    +0.146 C 
BRANCH  20  21
ATOM     21  C   ASN A   8      37.842  -3.018  10.347  0.00  0.00    +0.227 C 
ATOM     22  O   ASN A   8      36.821  -2.497  10.806  0.00  0.00    -0.286 OA
ENDBRANCH  20  21
BRANCH  20  23
ATOM     23  CB  ASN A   8      39.182  -1.241   9.265  0.00  0.00    +0.112 C 
BRANCH  23  24
ATOM     24  CG  ASN A   8      40.312  -1.038   8.278  0.00  0.00    +0.222 C 
ATOM     25  ND2 ASN A   8      41.519  -1.436   8.682  0.00  0.00    -0.329 N 
ATOM     26 HD21 ASN A   8      41.641  -1.848   9.629  0.00  0.00    +0.145 HD
ATOM     27 HD22 ASN A   8      42.339  -1.334   8.050  0.00  0.00    +0.145 HD
ATOM     28  OD1 ASN A   8      40.109  -0.540   7.160  0.00  0.00    -0.275 OA
ENDBRANCH  23  24
ENDBRANCH  20  23
ENDBRANCH  17  20
ENDBRANCH  15  16
BRANCH  15  29
ATOM     29  CB  SER A   7      36.650  -3.060   4.572  0.00  0.00    +0.166 C 
BRANCH  29  30
ATOM     30  OG  SER A   7      35.551  -2.914   3.709  0.00  0.00    -0.380 OA
ATOM     31  H   SER A   7      35.860  -2.971   2.770  0.00  0.00    +0.211 HD
ENDBRANCH  29  30
ENDBRANCH  15  29
ENDBRANCH  12  15
ENDBRANCH  10  11
BRANCH  10  32
ATOM     32  CB  SER A   6      33.856   0.180   7.866  0.00  0.00    +0.166 C 
BRANCH  32  33
ATOM     33  OG  SER A   6      33.600   1.557   8.005  0.00  0.00    -0.380 OA
ATOM     34  H   SER A   6      32.657   1.742   7.767  0.00  0.00    +0.211 HD
ENDBRANCH  32  33
ENDBRANCH  10  32
ENDBRANCH   7  10
ENDBRANCH   5   6
ENDBRANCH   2   5
BRANCH   1  35
ATOM     35  CA  THR A   4      28.516  -2.701   6.626  0.00  0.00    +0.176 C 
BRANCH  35  38
ATOM     36  C   ASP A   3      29.432  -2.041   8.801  0.00  0.00    +0.241 C 
ATOM     37  O   ASP A   3      30.581  -2.272   8.438  0.00  0.00    -0.273 OA
ATOM     38  N   THR A   4      28.374  -2.211   8.011  0.00  0.00    -0.295 N 
ATOM     39  H   THR A   4      27.426  -1.994   8.378  0.00  0.00    +0.150 HD
BRANCH  36  40
ATOM     40  CA  ASP A   3      29.180  -1.538  10.212  0.00  0.00    +0.160 C 
BRANCH  40  43
ATOM     41  C   VAL A   2      28.173  -2.741  12.073  0.00  0.00    +0.241 C 
ATOM     42  O   VAL A   2      27.227  -1.956  12.095  0.00  0.00    -0.273 OA
ATOM     43  N   ASP A   3      29.159  -2.633  11.190  0.00  0.00    -0.297 N 
ATOM     44  H   ASP A   3      29.927  -3.334  11.191  0.00  0.00    +0.150 HD
BRANCH  41  45
ATOM     45  CA  VAL A   2      28.253  -3.885  13.086  0.00  0.00    +0.148 C 
BRANCH  45  47
ATOM     46  C   LEU A   1      29.607  -2.823  14.822  0.00  0.00    +0.238 C 
ATOM     47  N   VAL A   2      28.416  -3.242  14.391  0.00  0.00    -0.297 N 
ATOM     48  H   VAL A   2      27.582  -3.108  14.998  0.00  0.00    +0.150 HD
ATOM     49  O   LEU A   1      30.654  -3.014  14.194  0.00  0.00    -0.274 OA
BRANCH  46  50
ATOM     50  CA  LEU A   1      29.637  -2.104  16.182  0.00  0.00    +0.145 C 
BRANCH  50  51
ATOM     51  N   LEU A   1      30.578  -2.738  17.081  0.00  0.00    -0.238 NA
ATOM     52  H   LEU A   1      31.412  -2.204  17.399  0.00  0.00    +0.142 HD
ENDBRANCH  50  51
BRANCH  50  53
ATOM     53  CB  LEU A   1      30.049  -0.652  15.979  0.00  0.00    +0.026 C 
BRANCH  53  54
ATOM     54  CG  LEU A   1      29.041   0.194  15.217  0.00  0.00    +0.002 C 
ATOM     55  CD2 LEU A   1      28.040   0.741  16.198  0.00  0.00    +0.000 C 
ATOM     56  CD1 LEU A   1      29.733   1.324  14.496  0.00  0.00    +0.000 C 
ENDBRANCH  53  54
ENDBRANCH  50  53
ENDBRANCH  46  50
ENDBRANCH  45  47
BRANCH  45  57
ATOM     57  CB  VAL A   2      26.946  -4.667  12.986  0.00  0.00    +0.027 C 
ATOM     58  CG2 VAL A   2      26.872  -5.725  14.065  0.00  0.00    +0.002 C 
ATOM     59  CG1 VAL A   2      26.854  -5.308  11.625  0.00  0.00    +0.002 C 
ENDBRANCH  45  57
ENDBRANCH  41  45
ENDBRANCH  40  43
BRANCH  40  60
ATOM     60  CB  ASP A   3      30.273  -0.544  10.616  0.00  0.00    +0.143 C 
BRANCH  60  61
ATOM     61  CG  ASP A   3      30.616   0.443   9.514  0.00  0.00    +0.367 C 
ATOM     62  OD2 ASP A   3      31.719   1.025   9.562  0.00  0.00    -0.246 OA
ATOM     63  OD1 ASP A   3      29.786   0.654   8.606  0.00  0.00    -0.246 OA
ENDBRANCH  60  61
ENDBRANCH  40  60
ENDBRANCH  36  40
ENDBRANCH  35  38
BRANCH  35  64
ATOM     64  CB  THR A   4      27.151  -3.222   6.046  0.00  0.00    +0.137 C 
ATOM     65  CG2 THR A   4      26.506  -4.212   7.005  0.00  0.00    +0.034 C 
BRANCH  64  66
ATOM     66  OG1 THR A   4      26.244  -2.128   5.844  0.00  0.00    -0.382 OA
ATOM     67  HG1 THR A   4      26.642  -1.484   5.206  0.00  0.00    +0.210 HD
ENDBRANCH  64  66
ENDBRANCH  35  64
ENDBRANCH   1  35
TORSDOF 29
REMARK  Name = ../refined-set-2016/3ckp/3ckp_pocket.pdb
REMARK  249 active torsions:
REMARK  status: ('A' for Active; 'I' for Inactive)
REMARK    1  A    between atoms: _1  and  _3
REMARK    2  A    between atoms: _3  and  _4
REMARK    3  A    between atoms: _3  and  _6
REMARK    4  A    between atoms: _6  and  _7
REMARK    5  A    between atoms: _7  and  _8
REMARK    6  A    between atoms: _8  and  _9
REMARK    7  A    between atoms: _9  and  _10
REMARK    8  A    between atoms: _14  and  _16
REMARK    9  A    between atoms: _16  and  _17
REMARK   10  A    between atoms: _16  and  _19
REMARK   11  A    between atoms: _19  and  _20
REMARK   12  A    between atoms: _22  and  _24
REMARK   13  A    between atoms: _24  and  _25
REMARK   14  A    between atoms: _27  and  _29
REMARK   15  A    between atoms: _29  and  _30
REMARK   16  A    between atoms: _29  and  _32
REMARK   17  A    between atoms: _32  and  _33
REMARK   18  A    between atoms: _33  and  _34
REMARK   19  A    between atoms: _39  and  _41
REMARK   20  A    between atoms: _41  and  _42
REMARK   21  A    between atoms: _44  and  _46
REMARK   22  A    between atoms: _46  and  _47
REMARK   23  A    between atoms: _46  and  _49
REMARK   24  A    between atoms: _49  and  _50
REMARK   25  A    between atoms: _55  and  _56
REMARK   26  A    between atoms: _58  and  _60
REMARK   27  A    between atoms: _60  and  _61
REMARK   28  A    between atoms: _60  and  _63
REMARK   29  A    between atoms: _63  and  _64
REMARK   30  A    between atoms: _69  and  _70
REMARK   31  A    between atoms: _72  and  _74
REMARK   32  A    between atoms: _74  and  _75
REMARK   33  A    between atoms: _74  and  _77
REMARK   34  A    between atoms: _77  and  _78
REMARK   35  A    between atoms: _81  and  _83
REMARK   36  A    between atoms: _83  and  _84
REMARK   37  A    between atoms: _83  and  _86
REMARK   38  A    between atoms: _89  and  _91
REMARK   39  A    between atoms: _91  and  _92
REMARK   40  A    between atoms: _91  and  _94
REMARK   41  A    between atoms: _94  and  _95
REMARK   42  A    between atoms: _98  and  _100
REMARK   43  A    between atoms: _100  and  _101
REMARK   44  A    between atoms: _100  and  _103
REMARK   45  A    between atoms: _103  and  _104
REMARK   46  A    between atoms: _107  and  _109
REMARK   47  A    between atoms: _109  and  _110
REMARK   48  A    between atoms: _112  and  _114
REMARK   49  A    between atoms: _114  and  _115
REMARK   50  A    between atoms: _114  and  _117
REMARK   51  A    between atoms: _117  and  _118
REMARK   52  A    between atoms: _120  and  _122
REMARK   53  A    between atoms: _122  and  _123
REMARK   54  A    between atoms: _122  and  _125
REMARK   55  A    between atoms: _125  and  _126
REMARK   56  A    between atoms: _128  and  _130
REMARK   57  A    between atoms: _130  and  _131
REMARK   58  A    between atoms: _130  and  _133
REMARK   59  A    between atoms: _133  and  _134
REMARK   60  A    between atoms: _139  and  _141
REMARK   61  A    between atoms: _141  and  _142
REMARK   62  A    between atoms: _141  and  _144
REMARK   63  A    between atoms: _144  and  _145
REMARK   64  A    between atoms: _150  and  _151
REMARK   65  A    between atoms: _153  and  _155
REMARK   66  A    between atoms: _155  and  _156
REMARK   67  A    between atoms: _155  and  _158
REMARK   68  A    between atoms: _162  and  _163
REMARK   69  A    between atoms: _168  and  _170
REMARK   70  A    between atoms: _170  and  _171
REMARK   71  A    between atoms: _170  and  _173
REMARK   72  A    between atoms: _173  and  _174
REMARK   73  A    between atoms: _179  and  _180
REMARK   74  A    between atoms: _182  and  _184
REMARK   75  A    between atoms: _184  and  _185
REMARK   76  A    between atoms: _184  and  _187
REMARK   77  A    between atoms: _187  and  _188
REMARK   78  A    between atoms: _191  and  _193
REMARK   79  A    between atoms: _193  and  _194
REMARK   80  A    between atoms: _193  and  _196
REMARK   81  A    between atoms: _196  and  _197
REMARK   82  A    between atoms: _197  and  _198
REMARK   83  A    between atoms: _203  and  _205
REMARK   84  A    between atoms: _205  and  _206
REMARK   85  A    between atoms: _208  and  _210
REMARK   86  A    between atoms: _210  and  _211
REMARK   87  A    between atoms: _210  and  _213
REMARK   88  A    between atoms: _213  and  _214
REMARK   89  A    between atoms: _214  and  _215
REMARK   90  A    between atoms: _215  and  _216
REMARK   91  A    between atoms: _216  and  _217
REMARK   92  A    between atoms: _221  and  _223
REMARK   93  A    between atoms: _223  and  _224
REMARK   94  A    between atoms: _223  and  _226
REMARK   95  A    between atoms: _226  and  _227
REMARK   96  A    between atoms: _237  and  _239
REMARK   97  A    between atoms: _239  and  _240
REMARK   98  A    between atoms: _239  and  _242
REMARK   99  A    between atoms: _242  and  _243
REMARK  100  A    between atoms: _246  and  _248
REMARK  101  A    between atoms: _248  and  _249
REMARK  102  A    between atoms: _248  and  _251
REMARK  103  A    between atoms: _251  and  _252
REMARK  104  A    between atoms: _252  and  _253
REMARK  105  A    between atoms: _253  and  _254
REMARK  106  A    between atoms: _254  and  _255
REMARK  107  A    between atoms: _259  and  _261
REMARK  108  A    between atoms: _261  and  _262
REMARK  109  A    between atoms: _261  and  _264
REMARK  110  A    between atoms: _264  and  _265
REMARK  111  A    between atoms: _271  and  _273
REMARK  112  A    between atoms: _273  and  _274
REMARK  113  A    between atoms: _273  and  _276
REMARK  114  A    between atoms: _276  and  _277
REMARK  115  A    between atoms: _283  and  _285
REMARK  116  A    between atoms: _285  and  _286
REMARK  117  A    between atoms: _285  and  _288
REMARK  118  A    between atoms: _288  and  _289
REMARK  119  A    between atoms: _292  and  _294
REMARK  120  A    between atoms: _294  and  _295
REMARK  121  A    between atoms: _294  and  _297
REMARK  122  A    between atoms: _297  and  _298
REMARK  123  A    between atoms: _300  and  _302
REMARK  124  A    between atoms: _302  and  _303
REMARK  125  A    between atoms: _302  and  _305
REMARK  126  A    between atoms: _305  and  _306
REMARK  127  A    between atoms: _316  and  _318
REMARK  128  A    between atoms: _318  and  _319
REMARK  129  A    between atoms: _321  and  _323
REMARK  130  A    between atoms: _323  and  _324
REMARK  131  A    between atoms: _323  and  _326
REMARK  132  A    between atoms: _326  and  _327
REMARK  133  A    between atoms: _330  and  _332
REMARK  134  A    between atoms: _332  and  _333
REMARK  135  A    between atoms: _335  and  _337
REMARK  136  A    between atoms: _337  and  _338
REMARK  137  A    between atoms: _337  and  _340
REMARK  138  A    between atoms: _340  and  _341
REMARK  139  A    between atoms: _344  and  _346
REMARK  140  A    between atoms: _346  and  _347
REMARK  141  A    between atoms: _350  and  _352
REMARK  142  A    between atoms: _352  and  _353
REMARK  143  A    between atoms: _352  and  _355
REMARK  144  A    between atoms: _355  and  _356
REMARK  145  A    between atoms: _361  and  _362
REMARK  146  A    between atoms: _364  and  _366
REMARK  147  A    between atoms: _366  and  _367
REMARK  148  A    between atoms: _366  and  _369
REMARK  149  A    between atoms: _369  and  _370
REMARK  150  A    between atoms: _370  and  _371
REMARK  151  A    between atoms: _374  and  _376
REMARK  152  A    between atoms: _376  and  _377
REMARK  153  A    between atoms: _376  and  _379
REMARK  154  A    between atoms: _379  and  _380
REMARK  155  A    between atoms: _383  and  _385
REMARK  156  A    between atoms: _385  and  _386
REMARK  157  A    between atoms: _389  and  _391
REMARK  158  A    between atoms: _391  and  _392
REMARK  159  A    between atoms: _391  and  _394
REMARK  160  A    between atoms: _394  and  _395
REMARK  161  A    between atoms: _395  and  _396
REMARK  162  A    between atoms: _396  and  _397
REMARK  163  A    between atoms: _406  and  _408
REMARK  164  A    between atoms: _408  and  _409
REMARK  165  A    between atoms: _408  and  _411
REMARK  166  A    between atoms: _411  and  _412
REMARK  167  A    between atoms: _415  and  _417
REMARK  168  A    between atoms: _417  and  _418
REMARK  169  A    between atoms: _417  and  _420
REMARK  170  A    between atoms: _420  and  _421
REMARK  171  A    between atoms: _431  and  _433
REMARK  172  A    between atoms: _433  and  _434
REMARK  173  A    between atoms: _433  and  _436
REMARK  174  A    between atoms: _436  and  _437
REMARK  175  A    between atoms: _442  and  _443
REMARK  176  A    between atoms: _445  and  _447
REMARK  177  A    between atoms: _447  and  _448
REMARK  178  A    between atoms: _447  and  _450
REMARK  179  A    between atoms: _450  and  _451
REMARK  180  A    between atoms: _451  and  _452
REMARK  181  A    between atoms: _452  and  _453
REMARK  182  A    between atoms: _453  and  _454
REMARK  183  A    between atoms: _458  and  _460
REMARK  184  A    between atoms: _460  and  _461
REMARK  185  A    between atoms: _460  and  _463
REMARK  186  A    between atoms: _463  and  _464
REMARK  187  A    between atoms: _467  and  _469
REMARK  188  A    between atoms: _469  and  _470
REMARK  189  A    between atoms: _469  and  _472
REMARK  190  A    between atoms: _475  and  _477
REMARK  191  A    between atoms: _477  and  _478
REMARK  192  A    between atoms: _477  and  _480
REMARK  193  A    between atoms: _480  and  _481
REMARK  194  A    between atoms: _484  and  _486
REMARK  195  A    between atoms: _486  and  _487
REMARK  196  A    between atoms: _486  and  _489
REMARK  197  A    between atoms: _489  and  _490
REMARK  198  A    between atoms: _492  and  _494
REMARK  199  A    between atoms: _494  and  _495
REMARK  200  A    between atoms: _497  and  _499
REMARK  201  A    between atoms: _499  and  _500
REMARK  202  A    between atoms: _499  and  _502
REMARK  203  A    between atoms: _502  and  _503
REMARK  204  A    between atoms: _506  and  _508
REMARK  205  A    between atoms: _508  and  _509
REMARK  206  A    between atoms: _508  and  _511
REMARK  207  A    between atoms: _511  and  _512
REMARK  208  A    between atoms: _515  and  _517
REMARK  209  A    between atoms: _517  and  _518
REMARK  210  A    between atoms: _517  and  _520
REMARK  211  A    between atoms: _520  and  _521
REMARK  212  A    between atoms: _526  and  _528
REMARK  213  A    between atoms: _528  and  _529
REMARK  214  A    between atoms: _528  and  _531
REMARK  215  A    between atoms: _531  and  _532
REMARK  216  A    between atoms: _535  and  _537
REMARK  217  A    between atoms: _537  and  _538
REMARK  218  A    between atoms: _537  and  _540
REMARK  219  A    between atoms: _540  and  _541
REMARK  220  A    between atoms: _541  and  _542
REMARK  221  A    between atoms: _542  and  _543
REMARK  222  A    between atoms: _552  and  _554
REMARK  223  A    between atoms: _554  and  _555
REMARK  224  A    between atoms: _554  and  _557
REMARK  225  A    between atoms: _557  and  _558
REMARK  226  A    between atoms: _558  and  _559
REMARK  227  A    between atoms: _559  and  _560
REMARK  228  A    between atoms: _569  and  _571
REMARK  229  A    between atoms: _571  and  _572
REMARK  230  A    between atoms: _571  and  _574
REMARK  231  A    between atoms: _574  and  _575
REMARK  232  A    between atoms: _575  and  _576
REMARK  233  A    between atoms: _576  and  _577
REMARK  234  A    between atoms: _577  and  _578
REMARK  235  A    between atoms: _582  and  _584
REMARK  236  A    between atoms: _584  and  _585
REMARK  237  A    between atoms: _584  and  _587
REMARK  238  A    between atoms: _587  and  _588
REMARK  239  A    between atoms: _590  and  _592
REMARK  240  A    between atoms: _592  and  _593
REMARK  241  A    between atoms: _592  and  _595
REMARK  242  A    between atoms: _595  and  _596
REMARK  243  A    between atoms: _599  and  _601
REMARK  244  A    between atoms: _601  and  _602
REMARK  245  A    between atoms: _601  and  _604
REMARK  246  A    between atoms: _607  and  _609
REMARK  247  A    between atoms: _609  and  _610
REMARK  248  A    between atoms: _612  and  _614
REMARK  249  A    between atoms: _614  and  _615
REMARK                            x       y       z     vdW  Elec       q    Type
REMARK                         _______ _______ _______ _____ _____    ______ ____
ROOT
ATOM      1  CA  THR A   5      32.686  11.016   8.632  0.00  0.00    +0.176 C 
ENDROOT
BRANCH   1   2
ATOM      2  C   THR A   5      33.031  12.164   9.578  0.00  0.00    +0.243 C 
ATOM      3  N   GLN A   6      33.185  11.862  10.858  0.00  0.00    -0.297 N 
ATOM      4  H   GLN A   6      33.091  10.876  11.175  0.00  0.00    +0.150 HD
ATOM      5  O   THR A   5      33.177  13.307   9.149  0.00  0.00    -0.273 OA
BRANCH   3   6
ATOM      6  CA  GLN A   6      33.485  12.908  11.820  0.00  0.00    +0.149 C 
BRANCH   6   7
ATOM      7  C   GLN A   6      34.402  12.404  12.925  0.00  0.00    +0.241 C 
ATOM      8  O   GLN A   6      35.037  13.190  13.627  0.00  0.00    -0.273 OA
ATOM      9  N   GLY A   7      34.452  11.088  13.093  0.00  0.00    -0.295 N 
ATOM     10  H   GLY A   7      33.877  10.467  12.489  0.00  0.00    +0.150 HD
BRANCH   9  11
ATOM     11  CA  GLY A   7      35.302  10.515  14.112  0.00  0.00    +0.176 C 
BRANCH  11  12
ATOM     12  C   GLY A   7      36.465   9.839  13.425  0.00  0.00    +0.243 C 
ATOM     13  N   LYS A   8      37.573   9.673  14.137  0.00  0.00    -0.297 N 
ATOM     14  H   LYS A   8      37.613  10.021  15.116  0.00  0.00    +0.150 HD
ATOM     15  O   GLY A   7      36.365   9.490  12.245  0.00  0.00    -0.273 OA
BRANCH  13  16
ATOM     16  CA  LYS A   8      38.731   9.009  13.559  0.00  0.00    +0.149 C 
BRANCH  16  17
ATOM     17  C   LYS A   8      39.505   8.315  14.648  0.00  0.00    +0.241 C 
ATOM     18  O   LYS A   8      39.417   8.689  15.813  0.00  0.00    -0.273 OA
ATOM     19  N   TRP A   9      40.235   7.277  14.269  0.00  0.00    -0.298 N 
ATOM     20  H   TRP A   9      40.215   6.973  13.275  0.00  0.00    +0.150 HD
BRANCH  19  21
ATOM     21  CA  TRP A   9      41.062   6.558  15.218  0.00  0.00    +0.141 C 
BRANCH  21  22
ATOM     22  C   TRP A   9      42.367   6.165  14.545  0.00  0.00    +0.227 C 
ATOM     23  O   TRP A   9      42.488   6.173  13.319  0.00  0.00    -0.286 OA
ENDBRANCH  21  22
BRANCH  21  24
ATOM     24  CB  TRP A   9      40.344   5.310  15.798  0.00  0.00    +0.056 C 
BRANCH  24  25
ATOM     25  CG  TRP A   9      39.855   4.254  14.806  0.00  0.00    -0.002 A 
ATOM     26  CD1 TRP A   9      38.563   4.010  14.458  0.00  0.00    +0.068 A 
ATOM     27  NE1 TRP A   9      38.500   3.012  13.510  0.00  0.00    -0.352 N 
ATOM     28  CE2 TRP A   9      39.769   2.588  13.225  0.00  0.00    +0.056 A 
ATOM     29  CZ2 TRP A   9      40.209   1.609  12.329  0.00  0.00    +0.017 A 
ATOM     30  CH2 TRP A   9      41.561   1.392  12.242  0.00  0.00    +0.001 A 
ATOM     31  CZ3 TRP A   9      42.473   2.120  13.028  0.00  0.00    +0.000 A 
ATOM     32  CE3 TRP A   9      42.029   3.096  13.924  0.00  0.00    +0.001 A 
ATOM     33  HE1 TRP A   9      37.628   2.641  13.081  0.00  0.00    +0.166 HD
ATOM     34  CD2 TRP A   9      40.655   3.341  14.026  0.00  0.00    +0.013 A 
ENDBRANCH  24  25
ENDBRANCH  21  24
ENDBRANCH  19  21
ENDBRANCH  16  17
BRANCH  16  35
ATOM     35  CB  LYS A   8      39.653  10.008  12.852  0.00  0.00    +0.029 C 
BRANCH  35  36
ATOM     36  CG  LYS A   8      40.101  11.147  13.735  0.00  0.00    +0.000 C 
BRANCH  36  37
ATOM     37  CD  LYS A   8      41.596  11.404  13.615  0.00  0.00    -0.024 C 
BRANCH  37  38
ATOM     38  CE  LYS A   8      42.001  11.940  12.249  0.00  0.00    -0.086 C 
BRANCH  38  39
ATOM     39  NZ  LYS A   8      43.484  12.103  12.194  0.00  0.00    +0.380 N 
ATOM     40  HZ1 LYS A   8      43.786  12.772  12.931  0.00  0.00    -0.089 HD
ATOM     41  HZ2 LYS A   8      43.939  11.181  12.353  0.00  0.00    -0.089 HD
ATOM     42  HZ3 LYS A   8      43.757  12.469  11.260  0.00  0.00    -0.089 HD
ENDBRANCH  38  39
ENDBRANCH  37  38
ENDBRANCH  36  37
ENDBRANCH  35  36
ENDBRANCH  16  35
ENDBRANCH  13  16
ENDBRANCH  11  12
ENDBRANCH   9  11
ENDBRANCH   6   7
BRANCH   6  43
ATOM     43  CB  GLN A   6      32.179  13.414  12.424  0.00  0.00    +0.039 C 
BRANCH  43  44
ATOM     44  CG  GLN A   6      32.294  14.668  13.244  0.00  0.00    +0.087 C 
BRANCH  44  45
ATOM     45  CD  GLN A   6      30.968  15.047  13.869  0.00  0.00    +0.219 C 
ATOM     46  OE1 GLN A   6      30.470  14.354  14.763  0.00  0.00    -0.275 OA
ATOM     47  NE2 GLN A   6      30.378  16.145  13.396  0.00  0.00    -0.329 N 
ATOM     48 HE21 GLN A   6      29.461  16.449  13.781  0.00  0.00    +0.145 HD
ATOM     49 HE22 GLN A   6      30.835  16.697  12.642  0.00  0.00    +0.145 HD
ENDBRANCH  44  45
ENDBRANCH  43  44
ENDBRANCH   6  43
ENDBRANCH   3   6
ENDBRANCH   1   2
BRANCH   1  51
ATOM     50  C   TYR A   4      34.625   9.640   8.753  0.00  0.00    +0.241 C 
ATOM     51  N   THR A   5      33.339   9.787   9.016  0.00  0.00    -0.295 N 
ATOM     52  H   THR A   5      32.806   9.031   9.491  0.00  0.00    +0.150 HD
ATOM     53  O   TYR A   4      35.288  10.513   8.193  0.00  0.00    -0.273 OA
BRANCH  50  54
ATOM     54  CA  TYR A   4      35.270   8.337   9.159  0.00  0.00    +0.153 C 
BRANCH  54  56
ATOM     55  C   PRO A   3      37.594   8.377   8.533  0.00  0.00    +0.241 C 
ATOM     56  N   TYR A   4      36.663   8.610   9.447  0.00  0.00    -0.297 N 
ATOM     57  H   TYR A   4      36.934   8.991  10.376  0.00  0.00    +0.150 HD
ATOM     58  O   PRO A   3      37.339   7.883   7.432  0.00  0.00    -0.273 OA
BRANCH  55  62
ATOM     59  C   VAL A   2      40.110   6.740   9.826  0.00  0.00    +0.244 C 
ATOM     60  O   VAL A   2      39.614   6.935  10.935  0.00  0.00    -0.273 OA
ATOM     61  N   PRO A   3      39.906   7.574   8.793  0.00  0.00    -0.272 N 
ATOM     62  CA  PRO A   3      39.029   8.733   8.925  0.00  0.00    +0.152 C 
ATOM     63  CB  PRO A   3      39.663   9.748   7.974  0.00  0.00    +0.031 C 
ATOM     64  CG  PRO A   3      40.164   8.888   6.885  0.00  0.00    +0.024 C 
ATOM     65  CD  PRO A   3      40.794   7.738   7.626  0.00  0.00    +0.094 C 
BRANCH  59  66
ATOM     66  CA  VAL A   2      41.034   5.555   9.583  0.00  0.00    +0.149 C 
BRANCH  66  68
ATOM     67  C   TYR A   1      43.377   5.205  10.019  0.00  0.00    +0.239 C 
ATOM     68  N   VAL A   2      42.185   5.564  10.475  0.00  0.00    -0.297 N 
ATOM     69  H   VAL A   2      42.072   5.852  11.468  0.00  0.00    +0.150 HD
ATOM     70  O   TYR A   1      43.538   4.765   8.882  0.00  0.00    -0.274 OA
BRANCH  67  71
ATOM     71  CA  TYR A   1      44.554   5.273  10.985  0.00  0.00    +0.149 C 
BRANCH  71  72
ATOM     72  N   TYR A   1      45.511   4.331  10.450  0.00  0.00    -0.238 NA
ATOM     73  H   TYR A   1      45.676   4.296   9.424  0.00  0.00    +0.142 HD
ENDBRANCH  71  72
BRANCH  71  74
ATOM     74  CB  TYR A   1      45.183   6.674  11.050  0.00  0.00    +0.053 C 
BRANCH  74  75
ATOM     75  CG  TYR A   1      45.349   7.366   9.717  0.00  0.00    -0.020 A 
ATOM     76  CD2 TYR A   1      44.342   8.206   9.218  0.00  0.00    -0.001 A 
ATOM     77  CE2 TYR A   1      44.446   8.790   7.960  0.00  0.00    +0.036 A 
ATOM     78  CZ  TYR A   1      45.573   8.548   7.179  0.00  0.00    +0.134 A 
ATOM     79  CE1 TYR A   1      46.601   7.732   7.652  0.00  0.00    +0.036 A 
ATOM     80  CD1 TYR A   1      46.480   7.141   8.922  0.00  0.00    -0.001 A 
BRANCH  78  81
ATOM     81  OH  TYR A   1      45.643   9.096   5.915  0.00  0.00    -0.506 OA
ATOM     82  HH  TYR A   1      44.834   9.642   5.748  0.00  0.00    +0.292 HD
ENDBRANCH  78  81
ENDBRANCH  74  75
ENDBRANCH  71  74
ENDBRANCH  67  71
ENDBRANCH  66  68
BRANCH  66  83
ATOM     83  CB  VAL A   2      40.179   4.268   9.698  0.00  0.00    +0.027 C 
ATOM     84  CG2 VAL A   2      41.023   3.031   9.421  0.00  0.00    +0.002 C 
ATOM     85  CG1 VAL A   2      39.033   4.342   8.697  0.00  0.00    +0.002 C 
ENDBRANCH  66  83
ENDBRANCH  59  66
ENDBRANCH  55  62
ENDBRANCH  54  56
BRANCH  54  86
ATOM     86  CB  TYR A   4      34.578   7.730  10.378  0.00  0.00    +0.055 C 
BRANCH  86  87
ATOM     87  CG  TYR A   4      35.049   6.322  10.645  0.00  0.00    -0.020 A 
ATOM     88  CD2 TYR A   4      35.914   6.046  11.700  0.00  0.00    -0.001 A 
ATOM     89  CE2 TYR A   4      36.407   4.757  11.919  0.00  0.00    +0.036 A 
ATOM     90  CZ  TYR A   4      36.036   3.728  11.078  0.00  0.00    +0.134 A 
ATOM     91  CE1 TYR A   4      35.172   3.973  10.019  0.00  0.00    +0.036 A 
ATOM     92  CD1 TYR A   4      34.680   5.271   9.808  0.00  0.00    -0.001 A 
BRANCH  90  93
ATOM     93  OH  TYR A   4      36.536   2.467  11.301  0.00  0.00    -0.506 OA
ATOM     94  HH  TYR A   4      36.178   1.846  10.618  0.00  0.00    +0.292 HD
ENDBRANCH  90  93
ENDBRANCH  86  87
ENDBRANCH  54  86
ENDBRANCH  50  54
ENDBRANCH   1  51
BRANCH   1  95
ATOM     95  CB  THR A   5      31.156  10.836   8.566  0.00  0.00    +0.137 C 
ATOM     96  CG2 THR A   5      30.464  12.190   8.352  0.00  0.00    +0.034 C 
BRANCH  95  97
ATOM     97  OG1 THR A   5      30.829   9.948   7.486  0.00  0.00    -0.382 OA
ATOM     98  HG1 THR A   5      31.155  10.332   6.634  0.00  0.00    +0.210 HD
ENDBRANCH  95  97
ENDBRANCH   1  95
TORSDOF 36
REMARK  Name = ../refined-set-2016/3ckp/3ckp_pocket.pdb
REMARK  249 active torsions:
REMARK  status: ('A' for Active; 'I' for Inactive)
REMARK    1  A    between atoms: _1  and  _3
REMARK    2  A    between atoms: _3  and  _4
REMARK    3  A    between atoms: _3  and  _6
REMARK    4  A    between atoms: _6  and  _7
REMARK    5  A    between atoms: _7  and  _8
REMARK    6  A    between atoms: _8  and  _9
REMARK    7  A    between atoms: _9  and  _10
REMARK    8  A    between atoms: _14  and  _16
REMARK    9  A    between atoms: _16  and  _17
REMARK   10  A    between atoms: _16  and  _19
REMARK   11  A    between atoms: _19  and  _20
REMARK   12  A    between atoms: _22  and  _24
REMARK   13  A    between atoms: _24  and  _25
REMARK   14  A    between atoms: _27  and  _29
REMARK   15  A    between atoms: _29  and  _30
REMARK   16  A    between atoms: _29  and  _32
REMARK   17  A    between atoms: _32  and  _33
REMARK   18  A    between atoms: _33  and  _34
REMARK   19  A    between atoms: _39  and  _41
REMARK   20  A    between atoms: _41  and  _42
REMARK   21  A    between atoms: _44  and  _46
REMARK   22  A    between atoms: _46  and  _47
REMARK   23  A    between atoms: _46  and  _49
REMARK   24  A    between atoms: _49  and  _50
REMARK   25  A    between atoms: _55  and  _56
REMARK   26  A    between atoms: _58  and  _60
REMARK   27  A    between atoms: _60  and  _61
REMARK   28  A    between atoms: _60  and  _63
REMARK   29  A    between atoms: _63  and  _64
REMARK   30  A    between atoms: _69  and  _70
REMARK   31  A    between atoms: _72  and  _74
REMARK   32  A    between atoms: _74  and  _75
REMARK   33  A    between atoms: _74  and  _77
REMARK   34  A    between atoms: _77  and  _78
REMARK   35  A    between atoms: _81  and  _83
REMARK   36  A    between atoms: _83  and  _84
REMARK   37  A    between atoms: _83  and  _86
REMARK   38  A    between atoms: _89  and  _91
REMARK   39  A    between atoms: _91  and  _92
REMARK   40  A    between atoms: _91  and  _94
REMARK   41  A    between atoms: _94  and  _95
REMARK   42  A    between atoms: _98  and  _100
REMARK   43  A    between atoms: _100  and  _101
REMARK   44  A    between atoms: _100  and  _103
REMARK   45  A    between atoms: _103  and  _104
REMARK   46  A    between atoms: _107  and  _109
REMARK   47  A    between atoms: _109  and  _110
REMARK   48  A    between atoms: _112  and  _114
REMARK   49  A    between atoms: _114  and  _115
REMARK   50  A    between atoms: _114  and  _117
REMARK   51  A    between atoms: _117  and  _118
REMARK   52  A    between atoms: _120  and  _122
REMARK   53  A    between atoms: _122  and  _123
REMARK   54  A    between atoms: _122  and  _125
REMARK   55  A    between atoms: _125  and  _126
REMARK   56  A    between atoms: _128  and  _130
REMARK   57  A    between atoms: _130  and  _131
REMARK   58  A    between atoms: _130  and  _133
REMARK   59  A    between atoms: _133  and  _134
REMARK   60  A    between atoms: _139  and  _141
REMARK   61  A    between atoms: _141  and  _142
REMARK   62  A    between atoms: _141  and  _144
REMARK   63  A    between atoms: _144  and  _145
REMARK   64  A    between atoms: _150  and  _151
REMARK   65  A    between atoms: _153  and  _155
REMARK   66  A    between atoms: _155  and  _156
REMARK   67  A    between atoms: _155  and  _158
REMARK   68  A    between atoms: _162  and  _163
REMARK   69  A    between atoms: _168  and  _170
REMARK   70  A    between atoms: _170  and  _171
REMARK   71  A    between atoms: _170  and  _173
REMARK   72  A    between atoms: _173  and  _174
REMARK   73  A    between atoms: _179  and  _180
REMARK   74  A    between atoms: _182  and  _184
REMARK   75  A    between atoms: _184  and  _185
REMARK   76  A    between atoms: _184  and  _187
REMARK   77  A    between atoms: _187  and  _188
REMARK   78  A    between atoms: _191  and  _193
REMARK   79  A    between atoms: _193  and  _194
REMARK   80  A    between atoms: _193  and  _196
REMARK   81  A    between atoms: _196  and  _197
REMARK   82  A    between atoms: _197  and  _198
REMARK   83  A    between atoms: _203  and  _205
REMARK   84  A    between atoms: _205  and  _206
REMARK   85  A    between atoms: _208  and  _210
REMARK   86  A    between atoms: _210  and  _211
REMARK   87  A    between atoms: _210  and  _213
REMARK   88  A    between atoms: _213  and  _214
REMARK   89  A    between atoms: _214  and  _215
REMARK   90  A    between atoms: _215  and  _216
REMARK   91  A    between atoms: _216  and  _217
REMARK   92  A    between atoms: _221  and  _223
REMARK   93  A    between atoms: _223  and  _224
REMARK   94  A    between atoms: _223  and  _226
REMARK   95  A    between atoms: _226  and  _227
REMARK   96  A    between atoms: _237  and  _239
REMARK   97  A    between atoms: _239  and  _240
REMARK   98  A    between atoms: _239  and  _242
REMARK   99  A    between atoms: _242  and  _243
REMARK  100  A    between atoms: _246  and  _248
REMARK  101  A    between atoms: _248  and  _249
REMARK  102  A    between atoms: _248  and  _251
REMARK  103  A    between atoms: _251  and  _252
REMARK  104  A    between atoms: _252  and  _253
REMARK  105  A    between atoms: _253  and  _254
REMARK  106  A    between atoms: _254  and  _255
REMARK  107  A    between atoms: _259  and  _261
REMARK  108  A    between atoms: _261  and  _262
REMARK  109  A    between atoms: _261  and  _264
REMARK  110  A    between atoms: _264  and  _265
REMARK  111  A    between atoms: _271  and  _273
REMARK  112  A    between atoms: _273  and  _274
REMARK  113  A    between atoms: _273  and  _276
REMARK  114  A    between atoms: _276  and  _277
REMARK  115  A    between atoms: _283  and  _285
REMARK  116  A    between atoms: _285  and  _286
REMARK  117  A    between atoms: _285  and  _288
REMARK  118  A    between atoms: _288  and  _289
REMARK  119  A    between atoms: _292  and  _294
REMARK  120  A    between atoms: _294  and  _295
REMARK  121  A    between atoms: _294  and  _297
REMARK  122  A    between atoms: _297  and  _298
REMARK  123  A    between atoms: _300  and  _302
REMARK  124  A    between atoms: _302  and  _303
REMARK  125  A    between atoms: _302  and  _305
REMARK  126  A    between atoms: _305  and  _306
REMARK  127  A    between atoms: _316  and  _318
REMARK  128  A    between atoms: _318  and  _319
REMARK  129  A    between atoms: _321  and  _323
REMARK  130  A    between atoms: _323  and  _324
REMARK  131  A    between atoms: _323  and  _326
REMARK  132  A    between atoms: _326  and  _327
REMARK  133  A    between atoms: _330  and  _332
REMARK  134  A    between atoms: _332  and  _333
REMARK  135  A    between atoms: _335  and  _337
REMARK  136  A    between atoms: _337  and  _338
REMARK  137  A    between atoms: _337  and  _340
REMARK  138  A    between atoms: _340  and  _341
REMARK  139  A    between atoms: _344  and  _346
REMARK  140  A    between atoms: _346  and  _347
REMARK  141  A    between atoms: _350  and  _352
REMARK  142  A    between atoms: _352  and  _353
REMARK  143  A    between atoms: _352  and  _355
REMARK  144  A    between atoms: _355  and  _356
REMARK  145  A    between atoms: _361  and  _362
REMARK  146  A    between atoms: _364  and  _366
REMARK  147  A    between atoms: _366  and  _367
REMARK  148  A    between atoms: _366  and  _369
REMARK  149  A    between atoms: _369  and  _370
REMARK  150  A    between atoms: _370  and  _371
REMARK  151  A    between atoms: _374  and  _376
REMARK  152  A    between atoms: _376  and  _377
REMARK  153  A    between atoms: _376  and  _379
REMARK  154  A    between atoms: _379  and  _380
REMARK  155  A    between atoms: _383  and  _385
REMARK  156  A    between atoms: _385  and  _386
REMARK  157  A    between atoms: _389  and  _391
REMARK  158  A    between atoms: _391  and  _392
REMARK  159  A    between atoms: _391  and  _394
REMARK  160  A    between atoms: _394  and  _395
REMARK  161  A    between atoms: _395  and  _396
REMARK  162  A    between atoms: _396  and  _397
REMARK  163  A    between atoms: _406  and  _408
REMARK  164  A    between atoms: _408  and  _409
REMARK  165  A    between atoms: _408  and  _411
REMARK  166  A    between atoms: _411  and  _412
REMARK  167  A    between atoms: _415  and  _417
REMARK  168  A    between atoms: _417  and  _418
REMARK  169  A    between atoms: _417  and  _420
REMARK  170  A    between atoms: _420  and  _421
REMARK  171  A    between atoms: _431  and  _433
REMARK  172  A    between atoms: _433  and  _434
REMARK  173  A    between atoms: _433  and  _436
REMARK  174  A    between atoms: _436  and  _437
REMARK  175  A    between atoms: _442  and  _443
REMARK  176  A    between atoms: _445  and  _447
REMARK  177  A    between atoms: _447  and  _448
REMARK  178  A    between atoms: _447  and  _450
REMARK  179  A    between atoms: _450  and  _451
REMARK  180  A    between atoms: _451  and  _452
REMARK  181  A    between atoms: _452  and  _453
REMARK  182  A    between atoms: _453  and  _454
REMARK  183  A    between atoms: _458  and  _460
REMARK  184  A    between atoms: _460  and  _461
REMARK  185  A    between atoms: _460  and  _463
REMARK  186  A    between atoms: _463  and  _464
REMARK  187  A    between atoms: _467  and  _469
REMARK  188  A    between atoms: _469  and  _470
REMARK  189  A    between atoms: _469  and  _472
REMARK  190  A    between atoms: _475  and  _477
REMARK  191  A    between atoms: _477  and  _478
REMARK  192  A    between atoms: _477  and  _480
REMARK  193  A    between atoms: _480  and  _481
REMARK  194  A    between atoms: _484  and  _486
REMARK  195  A    between atoms: _486  and  _487
REMARK  196  A    between atoms: _486  and  _489
REMARK  197  A    between atoms: _489  and  _490
REMARK  198  A    between atoms: _492  and  _494
REMARK  199  A    between atoms: _494  and  _495
REMARK  200  A    between atoms: _497  and  _499
REMARK  201  A    between atoms: _499  and  _500
REMARK  202  A    between atoms: _499  and  _502
REMARK  203  A    between atoms: _502  and  _503
REMARK  204  A    between atoms: _506  and  _508
REMARK  205  A    between atoms: _508  and  _509
REMARK  206  A    between atoms: _508  and  _511
REMARK  207  A    between atoms: _511  and  _512
REMARK  208  A    between atoms: _515  and  _517
REMARK  209  A    between atoms: _517  and  _518
REMARK  210  A    between atoms: _517  and  _520
REMARK  211  A    between atoms: _520  and  _521
REMARK  212  A    between atoms: _526  and  _528
REMARK  213  A    between atoms: _528  and  _529
REMARK  214  A    between atoms: _528  and  _531
REMARK  215  A    between atoms: _531  and  _532
REMARK  216  A    between atoms: _535  and  _537
REMARK  217  A    between atoms: _537  and  _538
REMARK  218  A    between atoms: _537  and  _540
REMARK  219  A    between atoms: _540  and  _541
REMARK  220  A    between atoms: _541  and  _542
REMARK  221  A    between atoms: _542  and  _543
REMARK  222  A    between atoms: _552  and  _554
REMARK  223  A    between atoms: _554  and  _555
REMARK  224  A    between atoms: _554  and  _557
REMARK  225  A    between atoms: _557  and  _558
REMARK  226  A    between atoms: _558  and  _559
REMARK  227  A    between atoms: _559  and  _560
REMARK  228  A    between atoms: _569  and  _571
REMARK  229  A    between atoms: _571  and  _572
REMARK  230  A    between atoms: _571  and  _574
REMARK  231  A    between atoms: _574  and  _575
REMARK  232  A    between atoms: _575  and  _576
REMARK  233  A    between atoms: _576  and  _577
REMARK  234  A    between atoms: _577  and  _578
REMARK  235  A    between atoms: _582  and  _584
REMARK  236  A    between atoms: _584  and  _585
REMARK  237  A    between atoms: _584  and  _587
REMARK  238  A    between atoms: _587  and  _588
REMARK  239  A    between atoms: _590  and  _592
REMARK  240  A    between atoms: _592  and  _593
REMARK  241  A    between atoms: _592  and  _595
REMARK  242  A    between atoms: _595  and  _596
REMARK  243  A    between atoms: _599  and  _601
REMARK  244  A    between atoms: _601  and  _602
REMARK  245  A    between atoms: _601  and  _604
REMARK  246  A    between atoms: _607  and  _609
REMARK  247  A    between atoms: _609  and  _610
REMARK  248  A    between atoms: _612  and  _614
REMARK  249  A    between atoms: _614  and  _615
REMARK                            x       y       z     vdW  Elec       q    Type
REMARK                         _______ _______ _______ _____ _____    ______ ____
ROOT
ATOM      1  CA  PHE A   3      35.192   8.085  17.832  0.00  0.00    +0.153 C 
ENDROOT
BRANCH   1   3
ATOM      2  C   LYS A   2      34.867  10.467  17.627  0.00  0.00    +0.241 C 
ATOM      3  N   PHE A   3      35.508   9.457  18.203  0.00  0.00    -0.297 N 
ATOM      4  H   PHE A   3      36.237   9.646  18.920  0.00  0.00    +0.150 HD
ATOM      5  O   LYS A   2      33.973  10.294  16.788  0.00  0.00    -0.273 OA
BRANCH   2   6
ATOM      6  CA  LYS A   2      35.283  11.880  18.035  0.00  0.00    +0.149 C 
BRANCH   6   8
ATOM      7  C   ASP A   1      37.662  11.491  17.528  0.00  0.00    +0.239 C 
ATOM      8  N   LYS A   2      36.708  11.886  18.374  0.00  0.00    -0.297 N 
ATOM      9  H   LYS A   2      36.990  12.214  19.320  0.00  0.00    +0.150 HD
ATOM     10  O   ASP A   1      37.430  11.094  16.386  0.00  0.00    -0.274 OA
BRANCH   7  11
ATOM     11  CA  ASP A   1      39.099  11.552  18.047  0.00  0.00    +0.156 C 
BRANCH  11  12
ATOM     12  N   ASP A   1      39.743  10.249  17.916  0.00  0.00    -0.238 NA
ATOM     13  H   ASP A   1      39.519   9.657  17.091  0.00  0.00    +0.142 HD
ENDBRANCH  11  12
BRANCH  11  14
ATOM     14  CB  ASP A   1      39.900  12.606  17.268  0.00  0.00    +0.140 C 
BRANCH  14  15
ATOM     15  CG  ASP A   1      39.314  14.006  17.404  0.00  0.00    +0.367 C 
ATOM     16  OD2 ASP A   1      39.061  14.439  18.557  0.00  0.00    -0.246 OA
ATOM     17  OD1 ASP A   1      39.113  14.675  16.360  0.00  0.00    -0.246 OA
ENDBRANCH  14  15
ENDBRANCH  11  14
ENDBRANCH   7  11
ENDBRANCH   6   8
BRANCH   6  18
ATOM     18  CB  LYS A   2      34.974  12.821  16.850  0.00  0.00    +0.029 C 
BRANCH  18  19
ATOM     19  CG  LYS A   2      35.631  14.213  16.846  0.00  0.00    +0.000 C 
BRANCH  19  20
ATOM     20  CD  LYS A   2      34.936  15.245  17.724  0.00  0.00    -0.024 C 
BRANCH  20  21
ATOM     21  CE  LYS A   2      35.389  15.156  19.178  0.00  0.00    -0.086 C 
BRANCH  21  22
ATOM     22  NZ  LYS A   2      34.959  16.349  19.983  0.00  0.00    +0.380 N 
ATOM     23  HZ1 LYS A   2      35.290  16.242  20.963  0.00  0.00    -0.089 HD
ATOM     24  HZ2 LYS A   2      33.921  16.417  19.972  0.00  0.00    -0.089 HD
ATOM     25  HZ3 LYS A   2      35.369  17.211  19.569  0.00  0.00    -0.089 HD
ENDBRANCH  21  22
ENDBRANCH  20  21
ENDBRANCH  19  20
ENDBRANCH  18  19
ENDBRANCH   6  18
ENDBRANCH   2   6
ENDBRANCH   1   3
BRANCH   1  26
ATOM     26  C   PHE A   3      34.343   7.347  18.856  0.00  0.00    +0.241 C 
ATOM     27  N   PHE A   4      34.943   6.928  19.962  0.00  0.00    -0.297 N 
ATOM     28  H   PHE A   4      35.960   7.096  20.097  0.00  0.00    +0.150 HD
ATOM     29  O   PHE A   3      33.157   7.144  18.638  0.00  0.00    -0.273 OA
BRANCH  27  30
ATOM     30  CA  PHE A   4      34.179   6.233  20.988  0.00  0.00    +0.153 C 
BRANCH  30  31
ATOM     31  C   PHE A   4      33.183   7.230  21.547  0.00  0.00    +0.241 C 
ATOM     32  N   ILE A   5      31.952   6.779  21.768  0.00  0.00    -0.298 N 
ATOM     33  H   ILE A   5      31.730   5.786  21.552  0.00  0.00    +0.150 HD
ATOM     34  O   PHE A   4      33.519   8.392  21.753  0.00  0.00    -0.273 OA
BRANCH  32  35
ATOM     35  CA  ILE A   5      30.905   7.639  22.305  0.00  0.00    +0.137 C 
BRANCH  35  36
ATOM     36  C   ILE A   5      30.774   7.475  23.820  0.00  0.00    +0.227 C 
ATOM     37  O   ILE A   5      31.097   6.426  24.369  0.00  0.00    -0.286 OA
ENDBRANCH  35  36
BRANCH  35  38
ATOM     38  CB  ILE A   5      29.562   7.294  21.672  0.00  0.00    +0.026 C 
ATOM     39  CG2 ILE A   5      28.468   8.190  22.243  0.00  0.00    +0.002 C 
BRANCH  38  40
ATOM     40  CG1 ILE A   5      29.659   7.439  20.156  0.00  0.00    +0.002 C 
ATOM     41  CD1 ILE A   5      28.421   6.949  19.433  0.00  0.00    +0.000 C 
ENDBRANCH  38  40
ENDBRANCH  35  38
ENDBRANCH  32  35
ENDBRANCH  30  31
BRANCH  30  42
ATOM     42  CB  PHE A   4      35.097   5.712  22.106  0.00  0.00    +0.055 C 
BRANCH  42  43
ATOM     43  CG  PHE A   4      36.101   4.693  21.635  0.00  0.00    -0.020 A 
ATOM     44  CD2 PHE A   4      37.464   4.924  21.774  0.00  0.00    -0.004 A 
ATOM     45  CE2 PHE A   4      38.396   4.037  21.261  0.00  0.00    -0.000 A 
ATOM     46  CZ  PHE A   4      37.974   2.899  20.603  0.00  0.00    -0.000 A 
ATOM     47  CE1 PHE A   4      36.613   2.648  20.465  0.00  0.00    -0.000 A 
ATOM     48  CD1 PHE A   4      35.686   3.544  20.980  0.00  0.00    -0.004 A 
ENDBRANCH  42  43
ENDBRANCH  30  42
ENDBRANCH  27  30
ENDBRANCH   1  26
BRANCH   1  49
ATOM     49  CB  PHE A   3      36.474   7.311  17.572  0.00  0.00    +0.055 C 
BRANCH  49  50
ATOM     50  CG  PHE A   3      36.237   5.936  17.050  0.00  0.00    -0.020 A 
ATOM     51  CD2 PHE A   3      36.469   4.824  17.854  0.00  0.00    -0.004 A 
ATOM     52  CE2 PHE A   3      36.217   3.548  17.389  0.00  0.00    -0.000 A 
ATOM     53  CZ  PHE A   3      35.722   3.367  16.101  0.00  0.00    -0.000 A 
ATOM     54  CE1 PHE A   3      35.486   4.473  15.283  0.00  0.00    -0.000 A 
ATOM     55  CD1 PHE A   3      35.747   5.749  15.763  0.00  0.00    -0.004 A 
ENDBRANCH  49  50
ENDBRANCH   1  49
TORSDOF 23
REMARK  Name = ../refined-set-2016/3ckp/3ckp_pocket.pdb
REMARK  249 active torsions:
REMARK  status: ('A' for Active; 'I' for Inactive)
REMARK    1  A    between atoms: _1  and  _3
REMARK    2  A    between atoms: _3  and  _4
REMARK    3  A    between atoms: _3  and  _6
REMARK    4  A    between atoms: _6  and  _7
REMARK    5  A    between atoms: _7  and  _8
REMARK    6  A    between atoms: _8  and  _9
REMARK    7  A    between atoms: _9  and  _10
REMARK    8  A    between atoms: _14  and  _16
REMARK    9  A    between atoms: _16  and  _17
REMARK   10  A    between atoms: _16  and  _19
REMARK   11  A    between atoms: _19  and  _20
REMARK   12  A    between atoms: _22  and  _24
REMARK   13  A    between atoms: _24  and  _25
REMARK   14  A    between atoms: _27  and  _29
REMARK   15  A    between atoms: _29  and  _30
REMARK   16  A    between atoms: _29  and  _32
REMARK   17  A    between atoms: _32  and  _33
REMARK   18  A    between atoms: _33  and  _34
REMARK   19  A    between atoms: _39  and  _41
REMARK   20  A    between atoms: _41  and  _42
REMARK   21  A    between atoms: _44  and  _46
REMARK   22  A    between atoms: _46  and  _47
REMARK   23  A    between atoms: _46  and  _49
REMARK   24  A    between atoms: _49  and  _50
REMARK   25  A    between atoms: _55  and  _56
REMARK   26  A    between atoms: _58  and  _60
REMARK   27  A    between atoms: _60  and  _61
REMARK   28  A    between atoms: _60  and  _63
REMARK   29  A    between atoms: _63  and  _64
REMARK   30  A    between atoms: _69  and  _70
REMARK   31  A    between atoms: _72  and  _74
REMARK   32  A    between atoms: _74  and  _75
REMARK   33  A    between atoms: _74  and  _77
REMARK   34  A    between atoms: _77  and  _78
REMARK   35  A    between atoms: _81  and  _83
REMARK   36  A    between atoms: _83  and  _84
REMARK   37  A    between atoms: _83  and  _86
REMARK   38  A    between atoms: _89  and  _91
REMARK   39  A    between atoms: _91  and  _92
REMARK   40  A    between atoms: _91  and  _94
REMARK   41  A    between atoms: _94  and  _95
REMARK   42  A    between atoms: _98  and  _100
REMARK   43  A    between atoms: _100  and  _101
REMARK   44  A    between atoms: _100  and  _103
REMARK   45  A    between atoms: _103  and  _104
REMARK   46  A    between atoms: _107  and  _109
REMARK   47  A    between atoms: _109  and  _110
REMARK   48  A    between atoms: _112  and  _114
REMARK   49  A    between atoms: _114  and  _115
REMARK   50  A    between atoms: _114  and  _117
REMARK   51  A    between atoms: _117  and  _118
REMARK   52  A    between atoms: _120  and  _122
REMARK   53  A    between atoms: _122  and  _123
REMARK   54  A    between atoms: _122  and  _125
REMARK   55  A    between atoms: _125  and  _126
REMARK   56  A    between atoms: _128  and  _130
REMARK   57  A    between atoms: _130  and  _131
REMARK   58  A    between atoms: _130  and  _133
REMARK   59  A    between atoms: _133  and  _134
REMARK   60  A    between atoms: _139  and  _141
REMARK   61  A    between atoms: _141  and  _142
REMARK   62  A    between atoms: _141  and  _144
REMARK   63  A    between atoms: _144  and  _145
REMARK   64  A    between atoms: _150  and  _151
REMARK   65  A    between atoms: _153  and  _155
REMARK   66  A    between atoms: _155  and  _156
REMARK   67  A    between atoms: _155  and  _158
REMARK   68  A    between atoms: _162  and  _163
REMARK   69  A    between atoms: _168  and  _170
REMARK   70  A    between atoms: _170  and  _171
REMARK   71  A    between atoms: _170  and  _173
REMARK   72  A    between atoms: _173  and  _174
REMARK   73  A    between atoms: _179  and  _180
REMARK   74  A    between atoms: _182  and  _184
REMARK   75  A    between atoms: _184  and  _185
REMARK   76  A    between atoms: _184  and  _187
REMARK   77  A    between atoms: _187  and  _188
REMARK   78  A    between atoms: _191  and  _193
REMARK   79  A    between atoms: _193  and  _194
REMARK   80  A    between atoms: _193  and  _196
REMARK   81  A    between atoms: _196  and  _197
REMARK   82  A    between atoms: _197  and  _198
REMARK   83  A    between atoms: _203  and  _205
REMARK   84  A    between atoms: _205  and  _206
REMARK   85  A    between atoms: _208  and  _210
REMARK   86  A    between atoms: _210  and  _211
REMARK   87  A    between atoms: _210  and  _213
REMARK   88  A    between atoms: _213  and  _214
REMARK   89  A    between atoms: _214  and  _215
REMARK   90  A    between atoms: _215  and  _216
REMARK   91  A    between atoms: _216  and  _217
REMARK   92  A    between atoms: _221  and  _223
REMARK   93  A    between atoms: _223  and  _224
REMARK   94  A    between atoms: _223  and  _226
REMARK   95  A    between atoms: _226  and  _227
REMARK   96  A    between atoms: _237  and  _239
REMARK   97  A    between atoms: _239  and  _240
REMARK   98  A    between atoms: _239  and  _242
REMARK   99  A    between atoms: _242  and  _243
REMARK  100  A    between atoms: _246  and  _248
REMARK  101  A    between atoms: _248  and  _249
REMARK  102  A    between atoms: _248  and  _251
REMARK  103  A    between atoms: _251  and  _252
REMARK  104  A    between atoms: _252  and  _253
REMARK  105  A    between atoms: _253  and  _254
REMARK  106  A    between atoms: _254  and  _255
REMARK  107  A    between atoms: _259  and  _261
REMARK  108  A    between atoms: _261  and  _262
REMARK  109  A    between atoms: _261  and  _264
REMARK  110  A    between atoms: _264  and  _265
REMARK  111  A    between atoms: _271  and  _273
REMARK  112  A    between atoms: _273  and  _274
REMARK  113  A    between atoms: _273  and  _276
REMARK  114  A    between atoms: _276  and  _277
REMARK  115  A    between atoms: _283  and  _285
REMARK  116  A    between atoms: _285  and  _286
REMARK  117  A    between atoms: _285  and  _288
REMARK  118  A    between atoms: _288  and  _289
REMARK  119  A    between atoms: _292  and  _294
REMARK  120  A    between atoms: _294  and  _295
REMARK  121  A    between atoms: _294  and  _297
REMARK  122  A    between atoms: _297  and  _298
REMARK  123  A    between atoms: _300  and  _302
REMARK  124  A    between atoms: _302  and  _303
REMARK  125  A    between atoms: _302  and  _305
REMARK  126  A    between atoms: _305  and  _306
REMARK  127  A    between atoms: _316  and  _318
REMARK  128  A    between atoms: _318  and  _319
REMARK  129  A    between atoms: _321  and  _323
REMARK  130  A    between atoms: _323  and  _324
REMARK  131  A    between atoms: _323  and  _326
REMARK  132  A    between atoms: _326  and  _327
REMARK  133  A    between atoms: _330  and  _332
REMARK  134  A    between atoms: _332  and  _333
REMARK  135  A    between atoms: _335  and  _337
REMARK  136  A    between atoms: _337  and  _338
REMARK  137  A    between atoms: _337  and  _340
REMARK  138  A    between atoms: _340  and  _341
REMARK  139  A    between atoms: _344  and  _346
REMARK  140  A    between atoms: _346  and  _347
REMARK  141  A    between atoms: _350  and  _352
REMARK  142  A    between atoms: _352  and  _353
REMARK  143  A    between atoms: _352  and  _355
REMARK  144  A    between atoms: _355  and  _356
REMARK  145  A    between atoms: _361  and  _362
REMARK  146  A    between atoms: _364  and  _366
REMARK  147  A    between atoms: _366  and  _367
REMARK  148  A    between atoms: _366  and  _369
REMARK  149  A    between atoms: _369  and  _370
REMARK  150  A    between atoms: _370  and  _371
REMARK  151  A    between atoms: _374  and  _376
REMARK  152  A    between atoms: _376  and  _377
REMARK  153  A    between atoms: _376  and  _379
REMARK  154  A    between atoms: _379  and  _380
REMARK  155  A    between atoms: _383  and  _385
REMARK  156  A    between atoms: _385  and  _386
REMARK  157  A    between atoms: _389  and  _391
REMARK  158  A    between atoms: _391  and  _392
REMARK  159  A    between atoms: _391  and  _394
REMARK  160  A    between atoms: _394  and  _395
REMARK  161  A    between atoms: _395  and  _396
REMARK  162  A    between atoms: _396  and  _397
REMARK  163  A    between atoms: _406  and  _408
REMARK  164  A    between atoms: _408  and  _409
REMARK  165  A    between atoms: _408  and  _411
REMARK  166  A    between atoms: _411  and  _412
REMARK  167  A    between atoms: _415  and  _417
REMARK  168  A    between atoms: _417  and  _418
REMARK  169  A    between atoms: _417  and  _420
REMARK  170  A    between atoms: _420  and  _421
REMARK  171  A    between atoms: _431  and  _433
REMARK  172  A    between atoms: _433  and  _434
REMARK  173  A    between atoms: _433  and  _436
REMARK  174  A    between atoms: _436  and  _437
REMARK  175  A    between atoms: _442  and  _443
REMARK  176  A    between atoms: _445  and  _447
REMARK  177  A    between atoms: _447  and  _448
REMARK  178  A    between atoms: _447  and  _450
REMARK  179  A    between atoms: _450  and  _451
REMARK  180  A    between atoms: _451  and  _452
REMARK  181  A    between atoms: _452  and  _453
REMARK  182  A    between atoms: _453  and  _454
REMARK  183  A    between atoms: _458  and  _460
REMARK  184  A    between atoms: _460  and  _461
REMARK  185  A    between atoms: _460  and  _463
REMARK  186  A    between atoms: _463  and  _464
REMARK  187  A    between atoms: _467  and  _469
REMARK  188  A    between atoms: _469  and  _470
REMARK  189  A    between atoms: _469  and  _472
REMARK  190  A    between atoms: _475  and  _477
REMARK  191  A    between atoms: _477  and  _478
REMARK  192  A    between atoms: _477  and  _480
REMARK  193  A    between atoms: _480  and  _481
REMARK  194  A    between atoms: _484  and  _486
REMARK  195  A    between atoms: _486  and  _487
REMARK  196  A    between atoms: _486  and  _489
REMARK  197  A    between atoms: _489  and  _490
REMARK  198  A    between atoms: _492  and  _494
REMARK  199  A    between atoms: _494  and  _495
REMARK  200  A    between atoms: _497  and  _499
REMARK  201  A    between atoms: _499  and  _500
REMARK  202  A    between atoms: _499  and  _502
REMARK  203  A    between atoms: _502  and  _503
REMARK  204  A    between atoms: _506  and  _508
REMARK  205  A    between atoms: _508  and  _509
REMARK  206  A    between atoms: _508  and  _511
REMARK  207  A    between atoms: _511  and  _512
REMARK  208  A    between atoms: _515  and  _517
REMARK  209  A    between atoms: _517  and  _518
REMARK  210  A    between atoms: _517  and  _520
REMARK  211  A    between atoms: _520  and  _521
REMARK  212  A    between atoms: _526  and  _528
REMARK  213  A    between atoms: _528  and  _529
REMARK  214  A    between atoms: _528  and  _531
REMARK  215  A    between atoms: _531  and  _532
REMARK  216  A    between atoms: _535  and  _537
REMARK  217  A    between atoms: _537  and  _538
REMARK  218  A    between atoms: _537  and  _540
REMARK  219  A    between atoms: _540  and  _541
REMARK  220  A    between atoms: _541  and  _542
REMARK  221  A    between atoms: _542  and  _543
REMARK  222  A    between atoms: _552  and  _554
REMARK  223  A    between atoms: _554  and  _555
REMARK  224  A    between atoms: _554  and  _557
REMARK  225  A    between atoms: _557  and  _558
REMARK  226  A    between atoms: _558  and  _559
REMARK  227  A    between atoms: _559  and  _560
REMARK  228  A    between atoms: _569  and  _571
REMARK  229  A    between atoms: _571  and  _572
REMARK  230  A    between atoms: _571  and  _574
REMARK  231  A    between atoms: _574  and  _575
REMARK  232  A    between atoms: _575  and  _576
REMARK  233  A    between atoms: _576  and  _577
REMARK  234  A    between atoms: _577  and  _578
REMARK  235  A    between atoms: _582  and  _584
REMARK  236  A    between atoms: _584  and  _585
REMARK  237  A    between atoms: _584  and  _587
REMARK  238  A    between atoms: _587  and  _588
REMARK  239  A    between atoms: _590  and  _592
REMARK  240  A    between atoms: _592  and  _593
REMARK  241  A    between atoms: _592  and  _595
REMARK  242  A    between atoms: _595  and  _596
REMARK  243  A    between atoms: _599  and  _601
REMARK  244  A    between atoms: _601  and  _602
REMARK  245  A    between atoms: _601  and  _604
REMARK  246  A    between atoms: _607  and  _609
REMARK  247  A    between atoms: _609  and  _610
REMARK  248  A    between atoms: _612  and  _614
REMARK  249  A    between atoms: _614  and  _615
REMARK                            x       y       z     vdW  Elec       q    Type
REMARK                         _______ _______ _______ _____ _____    ______ ____
ROOT
ATOM      1  CA  SER A   1      27.747   3.796  24.022  0.00  0.00    +0.163 C 
ENDROOT
BRANCH   1   2
ATOM      2  N   SER A   1      28.315   4.486  25.188  0.00  0.00    -0.237 NA
ATOM      3  H   SER A   1      29.329   4.716  25.209  0.00  0.00    +0.142 HD
ENDBRANCH   1   2
BRANCH   1   4
ATOM      4  CB  SER A   1      27.684   2.292  24.269  0.00  0.00    +0.227 C 
ATOM      5  OG  SER A   1      26.855   1.586  23.689  0.00  0.00    -0.287 OA
ENDBRANCH   1   4
BRANCH   1   6
ATOM      6  C   SER A   1      28.584   4.043  22.764  0.00  0.00    +0.162 C 
BRANCH   6   7
ATOM      7  O   SER A   1      29.710   3.185  22.728  0.00  0.00    -0.380 OA
ATOM      8  H   SER A   1      30.234   3.364  21.907  0.00  0.00    +0.211 HD
ENDBRANCH   6   7
ENDBRANCH   1   6
TORSDOF 4
REMARK  Name = ../refined-set-2016/3ckp/3ckp_pocket.pdb
REMARK  249 active torsions:
REMARK  status: ('A' for Active; 'I' for Inactive)
REMARK    1  A    between atoms: _1  and  _3
REMARK    2  A    between atoms: _3  and  _4
REMARK    3  A    between atoms: _3  and  _6
REMARK    4  A    between atoms: _6  and  _7
REMARK    5  A    between atoms: _7  and  _8
REMARK    6  A    between atoms: _8  and  _9
REMARK    7  A    between atoms: _9  and  _10
REMARK    8  A    between atoms: _14  and  _16
REMARK    9  A    between atoms: _16  and  _17
REMARK   10  A    between atoms: _16  and  _19
REMARK   11  A    between atoms: _19  and  _20
REMARK   12  A    between atoms: _22  and  _24
REMARK   13  A    between atoms: _24  and  _25
REMARK   14  A    between atoms: _27  and  _29
REMARK   15  A    between atoms: _29  and  _30
REMARK   16  A    between atoms: _29  and  _32
REMARK   17  A    between atoms: _32  and  _33
REMARK   18  A    between atoms: _33  and  _34
REMARK   19  A    between atoms: _39  and  _41
REMARK   20  A    between atoms: _41  and  _42
REMARK   21  A    between atoms: _44  and  _46
REMARK   22  A    between atoms: _46  and  _47
REMARK   23  A    between atoms: _46  and  _49
REMARK   24  A    between atoms: _49  and  _50
REMARK   25  A    between atoms: _55  and  _56
REMARK   26  A    between atoms: _58  and  _60
REMARK   27  A    between atoms: _60  and  _61
REMARK   28  A    between atoms: _60  and  _63
REMARK   29  A    between atoms: _63  and  _64
REMARK   30  A    between atoms: _69  and  _70
REMARK   31  A    between atoms: _72  and  _74
REMARK   32  A    between atoms: _74  and  _75
REMARK   33  A    between atoms: _74  and  _77
REMARK   34  A    between atoms: _77  and  _78
REMARK   35  A    between atoms: _81  and  _83
REMARK   36  A    between atoms: _83  and  _84
REMARK   37  A    between atoms: _83  and  _86
REMARK   38  A    between atoms: _89  and  _91
REMARK   39  A    between atoms: _91  and  _92
REMARK   40  A    between atoms: _91  and  _94
REMARK   41  A    between atoms: _94  and  _95
REMARK   42  A    between atoms: _98  and  _100
REMARK   43  A    between atoms: _100  and  _101
REMARK   44  A    between atoms: _100  and  _103
REMARK   45  A    between atoms: _103  and  _104
REMARK   46  A    between atoms: _107  and  _109
REMARK   47  A    between atoms: _109  and  _110
REMARK   48  A    between atoms: _112  and  _114
REMARK   49  A    between atoms: _114  and  _115
REMARK   50  A    between atoms: _114  and  _117
REMARK   51  A    between atoms: _117  and  _118
REMARK   52  A    between atoms: _120  and  _122
REMARK   53  A    between atoms: _122  and  _123
REMARK   54  A    between atoms: _122  and  _125
REMARK   55  A    between atoms: _125  and  _126
REMARK   56  A    between atoms: _128  and  _130
REMARK   57  A    between atoms: _130  and  _131
REMARK   58  A    between atoms: _130  and  _133
REMARK   59  A    between atoms: _133  and  _134
REMARK   60  A    between atoms: _139  and  _141
REMARK   61  A    between atoms: _141  and  _142
REMARK   62  A    between atoms: _141  and  _144
REMARK   63  A    between atoms: _144  and  _145
REMARK   64  A    between atoms: _150  and  _151
REMARK   65  A    between atoms: _153  and  _155
REMARK   66  A    between atoms: _155  and  _156
REMARK   67  A    between atoms: _155  and  _158
REMARK   68  A    between atoms: _162  and  _163
REMARK   69  A    between atoms: _168  and  _170
REMARK   70  A    between atoms: _170  and  _171
REMARK   71  A    between atoms: _170  and  _173
REMARK   72  A    between atoms: _173  and  _174
REMARK   73  A    between atoms: _179  and  _180
REMARK   74  A    between atoms: _182  and  _184
REMARK   75  A    between atoms: _184  and  _185
REMARK   76  A    between atoms: _184  and  _187
REMARK   77  A    between atoms: _187  and  _188
REMARK   78  A    between atoms: _191  and  _193
REMARK   79  A    between atoms: _193  and  _194
REMARK   80  A    between atoms: _193  and  _196
REMARK   81  A    between atoms: _196  and  _197
REMARK   82  A    between atoms: _197  and  _198
REMARK   83  A    between atoms: _203  and  _205
REMARK   84  A    between atoms: _205  and  _206
REMARK   85  A    between atoms: _208  and  _210
REMARK   86  A    between atoms: _210  and  _211
REMARK   87  A    between atoms: _210  and  _213
REMARK   88  A    between atoms: _213  and  _214
REMARK   89  A    between atoms: _214  and  _215
REMARK   90  A    between atoms: _215  and  _216
REMARK   91  A    between atoms: _216  and  _217
REMARK   92  A    between atoms: _221  and  _223
REMARK   93  A    between atoms: _223  and  _224
REMARK   94  A    between atoms: _223  and  _226
REMARK   95  A    between atoms: _226  and  _227
REMARK   96  A    between atoms: _237  and  _239
REMARK   97  A    between atoms: _239  and  _240
REMARK   98  A    between atoms: _239  and  _242
REMARK   99  A    between atoms: _242  and  _243
REMARK  100  A    between atoms: _246  and  _248
REMARK  101  A    between atoms: _248  and  _249
REMARK  102  A    between atoms: _248  and  _251
REMARK  103  A    between atoms: _251  and  _252
REMARK  104  A    between atoms: _252  and  _253
REMARK  105  A    between atoms: _253  and  _254
REMARK  106  A    between atoms: _254  and  _255
REMARK  107  A    between atoms: _259  and  _261
REMARK  108  A    between atoms: _261  and  _262
REMARK  109  A    between atoms: _261  and  _264
REMARK  110  A    between atoms: _264  and  _265
REMARK  111  A    between atoms: _271  and  _273
REMARK  112  A    between atoms: _273  and  _274
REMARK  113  A    between atoms: _273  and  _276
REMARK  114  A    between atoms: _276  and  _277
REMARK  115  A    between atoms: _283  and  _285
REMARK  116  A    between atoms: _285  and  _286
REMARK  117  A    between atoms: _285  and  _288
REMARK  118  A    between atoms: _288  and  _289
REMARK  119  A    between atoms: _292  and  _294
REMARK  120  A    between atoms: _294  and  _295
REMARK  121  A    between atoms: _294  and  _297
REMARK  122  A    between atoms: _297  and  _298
REMARK  123  A    between atoms: _300  and  _302
REMARK  124  A    between atoms: _302  and  _303
REMARK  125  A    between atoms: _302  and  _305
REMARK  126  A    between atoms: _305  and  _306
REMARK  127  A    between atoms: _316  and  _318
REMARK  128  A    between atoms: _318  and  _319
REMARK  129  A    between atoms: _321  and  _323
REMARK  130  A    between atoms: _323  and  _324
REMARK  131  A    between atoms: _323  and  _326
REMARK  132  A    between atoms: _326  and  _327
REMARK  133  A    between atoms: _330  and  _332
REMARK  134  A    between atoms: _332  and  _333
REMARK  135  A    between atoms: _335  and  _337
REMARK  136  A    between atoms: _337  and  _338
REMARK  137  A    between atoms: _337  and  _340
REMARK  138  A    between atoms: _340  and  _341
REMARK  139  A    between atoms: _344  and  _346
REMARK  140  A    between atoms: _346  and  _347
REMARK  141  A    between atoms: _350  and  _352
REMARK  142  A    between atoms: _352  and  _353
REMARK  143  A    between atoms: _352  and  _355
REMARK  144  A    between atoms: _355  and  _356
REMARK  145  A    between atoms: _361  and  _362
REMARK  146  A    between atoms: _364  and  _366
REMARK  147  A    between atoms: _366  and  _367
REMARK  148  A    between atoms: _366  and  _369
REMARK  149  A    between atoms: _369  and  _370
REMARK  150  A    between atoms: _370  and  _371
REMARK  151  A    between atoms: _374  and  _376
REMARK  152  A    between atoms: _376  and  _377
REMARK  153  A    between atoms: _376  and  _379
REMARK  154  A    between atoms: _379  and  _380
REMARK  155  A    between atoms: _383  and  _385
REMARK  156  A    between atoms: _385  and  _386
REMARK  157  A    between atoms: _389  and  _391
REMARK  158  A    between atoms: _391  and  _392
REMARK  159  A    between atoms: _391  and  _394
REMARK  160  A    between atoms: _394  and  _395
REMARK  161  A    between atoms: _395  and  _396
REMARK  162  A    between atoms: _396  and  _397
REMARK  163  A    between atoms: _406  and  _408
REMARK  164  A    between atoms: _408  and  _409
REMARK  165  A    between atoms: _408  and  _411
REMARK  166  A    between atoms: _411  and  _412
REMARK  167  A    between atoms: _415  and  _417
REMARK  168  A    between atoms: _417  and  _418
REMARK  169  A    between atoms: _417  and  _420
REMARK  170  A    between atoms: _420  and  _421
REMARK  171  A    between atoms: _431  and  _433
REMARK  172  A    between atoms: _433  and  _434
REMARK  173  A    between atoms: _433  and  _436
REMARK  174  A    between atoms: _436  and  _437
REMARK  175  A    between atoms: _442  and  _443
REMARK  176  A    between atoms: _445  and  _447
REMARK  177  A    between atoms: _447  and  _448
REMARK  178  A    between atoms: _447  and  _450
REMARK  179  A    between atoms: _450  and  _451
REMARK  180  A    between atoms: _451  and  _452
REMARK  181  A    between atoms: _452  and  _453
REMARK  182  A    between atoms: _453  and  _454
REMARK  183  A    between atoms: _458  and  _460
REMARK  184  A    between atoms: _460  and  _461
REMARK  185  A    between atoms: _460  and  _463
REMARK  186  A    between atoms: _463  and  _464
REMARK  187  A    between atoms: _467  and  _469
REMARK  188  A    between atoms: _469  and  _470
REMARK  189  A    between atoms: _469  and  _472
REMARK  190  A    between atoms: _475  and  _477
REMARK  191  A    between atoms: _477  and  _478
REMARK  192  A    between atoms: _477  and  _480
REMARK  193  A    between atoms: _480  and  _481
REMARK  194  A    between atoms: _484  and  _486
REMARK  195  A    between atoms: _486  and  _487
REMARK  196  A    between atoms: _486  and  _489
REMARK  197  A    between atoms: _489  and  _490
REMARK  198  A    between atoms: _492  and  _494
REMARK  199  A    between atoms: _494  and  _495
REMARK  200  A    between atoms: _497  and  _499
REMARK  201  A    between atoms: _499  and  _500
REMARK  202  A    between atoms: _499  and  _502
REMARK  203  A    between atoms: _502  and  _503
REMARK  204  A    between atoms: _506  and  _508
REMARK  205  A    between atoms: _508  and  _509
REMARK  206  A    between atoms: _508  and  _511
REMARK  207  A    between atoms: _511  and  _512
REMARK  208  A    between atoms: _515  and  _517
REMARK  209  A    between atoms: _517  and  _518
REMARK  210  A    between atoms: _517  and  _520
REMARK  211  A    between atoms: _520  and  _521
REMARK  212  A    between atoms: _526  and  _528
REMARK  213  A    between atoms: _528  and  _529
REMARK  214  A    between atoms: _528  and  _531
REMARK  215  A    between atoms: _531  and  _532
REMARK  216  A    between atoms: _535  and  _537
REMARK  217  A    between atoms: _537  and  _538
REMARK  218  A    between atoms: _537  and  _540
REMARK  219  A    between atoms: _540  and  _541
REMARK  220  A    between atoms: _541  and  _542
REMARK  221  A    between atoms: _542  and  _543
REMARK  222  A    between atoms: _552  and  _554
REMARK  223  A    between atoms: _554  and  _555
REMARK  224  A    between atoms: _554  and  _557
REMARK  225  A    between atoms: _557  and  _558
REMARK  226  A    between atoms: _558  and  _559
REMARK  227  A    between atoms: _559  and  _560
REMARK  228  A    between atoms: _569  and  _571
REMARK  229  A    between atoms: _571  and  _572
REMARK  230  A    between atoms: _571  and  _574
REMARK  231  A    between atoms: _574  and  _575
REMARK  232  A    between atoms: _575  and  _576
REMARK  233  A    between atoms: _576  and  _577
REMARK  234  A    between atoms: _577  and  _578
REMARK  235  A    between atoms: _582  and  _584
REMARK  236  A    between atoms: _584  and  _585
REMARK  237  A    between atoms: _584  and  _587
REMARK  238  A    between atoms: _587  and  _588
REMARK  239  A    between atoms: _590  and  _592
REMARK  240  A    between atoms: _592  and  _593
REMARK  241  A    between atoms: _592  and  _595
REMARK  242  A    between atoms: _595  and  _596
REMARK  243  A    between atoms: _599  and  _601
REMARK  244  A    between atoms: _601  and  _602
REMARK  245  A    between atoms: _601  and  _604
REMARK  246  A    between atoms: _607  and  _609
REMARK  247  A    between atoms: _609  and  _610
REMARK  248  A    between atoms: _612  and  _614
REMARK  249  A    between atoms: _614  and  _615
REMARK                            x       y       z     vdW  Elec       q    Type
REMARK                         _______ _______ _______ _____ _____    ______ ____
ROOT
ATOM      1  CG  TRP A   1      29.720   0.655  20.249  0.00  0.00    -0.002 A 
ATOM      2  CD1 TRP A   1      28.495   1.244  20.040  0.00  0.00    +0.068 A 
ATOM      3  NE1 TRP A   1      28.632   2.372  19.263  0.00  0.00    -0.352 N 
ATOM      4  CE2 TRP A   1      29.958   2.541  18.964  0.00  0.00    +0.056 A 
ATOM      5  CZ2 TRP A   1      30.590   3.541  18.212  0.00  0.00    +0.017 A 
ATOM      6  CH2 TRP A   1      31.957   3.462  18.077  0.00  0.00    +0.001 A 
ATOM      7  CZ3 TRP A   1      32.695   2.411  18.674  0.00  0.00    +0.000 A 
ATOM      8  CE3 TRP A   1      32.065   1.421  19.419  0.00  0.00    +0.001 A 
ATOM      9  HE1 TRP A   1      27.857   2.993  18.954  0.00  0.00    +0.166 HD
ATOM     10  CD2 TRP A   1      30.675   1.478  19.573  0.00  0.00    +0.013 A 
ENDROOT
BRANCH   1  11
ATOM     11  CB  TRP A   1      29.980  -0.679  20.912  0.00  0.00    +0.053 C 
BRANCH  11  12
ATOM     12  CA  TRP A   1      30.548  -0.721  22.340  0.00  0.00    +0.137 C 
BRANCH  12  13
ATOM     13  N   TRP A   1      29.784   0.072  23.297  0.00  0.00    -0.239 NA
ATOM     14  H   TRP A   1      29.573   1.071  23.098  0.00  0.00    +0.142 HD
ENDBRANCH  12  13
BRANCH  12  15
ATOM     15  C   TRP A   1      32.006  -0.243  22.384  0.00  0.00    +0.224 C 
ATOM     16  O   TRP A   1      32.282   0.917  22.677  0.00  0.00    -0.287 OA
ENDBRANCH  12  15
ENDBRANCH  11  12
ENDBRANCH   1  11
TORSDOF 4
REMARK  Name = ../refined-set-2016/3ckp/3ckp_pocket.pdb
REMARK  249 active torsions:
REMARK  status: ('A' for Active; 'I' for Inactive)
REMARK    1  A    between atoms: _1  and  _3
REMARK    2  A    between atoms: _3  and  _4
REMARK    3  A    between atoms: _3  and  _6
REMARK    4  A    between atoms: _6  and  _7
REMARK    5  A    between atoms: _7  and  _8
REMARK    6  A    between atoms: _8  and  _9
REMARK    7  A    between atoms: _9  and  _10
REMARK    8  A    between atoms: _14  and  _16
REMARK    9  A    between atoms: _16  and  _17
REMARK   10  A    between atoms: _16  and  _19
REMARK   11  A    between atoms: _19  and  _20
REMARK   12  A    between atoms: _22  and  _24
REMARK   13  A    between atoms: _24  and  _25
REMARK   14  A    between atoms: _27  and  _29
REMARK   15  A    between atoms: _29  and  _30
REMARK   16  A    between atoms: _29  and  _32
REMARK   17  A    between atoms: _32  and  _33
REMARK   18  A    between atoms: _33  and  _34
REMARK   19  A    between atoms: _39  and  _41
REMARK   20  A    between atoms: _41  and  _42
REMARK   21  A    between atoms: _44  and  _46
REMARK   22  A    between atoms: _46  and  _47
REMARK   23  A    between atoms: _46  and  _49
REMARK   24  A    between atoms: _49  and  _50
REMARK   25  A    between atoms: _55  and  _56
REMARK   26  A    between atoms: _58  and  _60
REMARK   27  A    between atoms: _60  and  _61
REMARK   28  A    between atoms: _60  and  _63
REMARK   29  A    between atoms: _63  and  _64
REMARK   30  A    between atoms: _69  and  _70
REMARK   31  A    between atoms: _72  and  _74
REMARK   32  A    between atoms: _74  and  _75
REMARK   33  A    between atoms: _74  and  _77
REMARK   34  A    between atoms: _77  and  _78
REMARK   35  A    between atoms: _81  and  _83
REMARK   36  A    between atoms: _83  and  _84
REMARK   37  A    between atoms: _83  and  _86
REMARK   38  A    between atoms: _89  and  _91
REMARK   39  A    between atoms: _91  and  _92
REMARK   40  A    between atoms: _91  and  _94
REMARK   41  A    between atoms: _94  and  _95
REMARK   42  A    between atoms: _98  and  _100
REMARK   43  A    between atoms: _100  and  _101
REMARK   44  A    between atoms: _100  and  _103
REMARK   45  A    between atoms: _103  and  _104
REMARK   46  A    between atoms: _107  and  _109
REMARK   47  A    between atoms: _109  and  _110
REMARK   48  A    between atoms: _112  and  _114
REMARK   49  A    between atoms: _114  and  _115
REMARK   50  A    between atoms: _114  and  _117
REMARK   51  A    between atoms: _117  and  _118
REMARK   52  A    between atoms: _120  and  _122
REMARK   53  A    between atoms: _122  and  _123
REMARK   54  A    between atoms: _122  and  _125
REMARK   55  A    between atoms: _125  and  _126
REMARK   56  A    between atoms: _128  and  _130
REMARK   57  A    between atoms: _130  and  _131
REMARK   58  A    between atoms: _130  and  _133
REMARK   59  A    between atoms: _133  and  _134
REMARK   60  A    between atoms: _139  and  _141
REMARK   61  A    between atoms: _141  and  _142
REMARK   62  A    between atoms: _141  and  _144
REMARK   63  A    between atoms: _144  and  _145
REMARK   64  A    between atoms: _150  and  _151
REMARK   65  A    between atoms: _153  and  _155
REMARK   66  A    between atoms: _155  and  _156
REMARK   67  A    between atoms: _155  and  _158
REMARK   68  A    between atoms: _162  and  _163
REMARK   69  A    between atoms: _168  and  _170
REMARK   70  A    between atoms: _170  and  _171
REMARK   71  A    between atoms: _170  and  _173
REMARK   72  A    between atoms: _173  and  _174
REMARK   73  A    between atoms: _179  and  _180
REMARK   74  A    between atoms: _182  and  _184
REMARK   75  A    between atoms: _184  and  _185
REMARK   76  A    between atoms: _184  and  _187
REMARK   77  A    between atoms: _187  and  _188
REMARK   78  A    between atoms: _191  and  _193
REMARK   79  A    between atoms: _193  and  _194
REMARK   80  A    between atoms: _193  and  _196
REMARK   81  A    between atoms: _196  and  _197
REMARK   82  A    between atoms: _197  and  _198
REMARK   83  A    between atoms: _203  and  _205
REMARK   84  A    between atoms: _205  and  _206
REMARK   85  A    between atoms: _208  and  _210
REMARK   86  A    between atoms: _210  and  _211
REMARK   87  A    between atoms: _210  and  _213
REMARK   88  A    between atoms: _213  and  _214
REMARK   89  A    between atoms: _214  and  _215
REMARK   90  A    between atoms: _215  and  _216
REMARK   91  A    between atoms: _216  and  _217
REMARK   92  A    between atoms: _221  and  _223
REMARK   93  A    between atoms: _223  and  _224
REMARK   94  A    between atoms: _223  and  _226
REMARK   95  A    between atoms: _226  and  _227
REMARK   96  A    between atoms: _237  and  _239
REMARK   97  A    between atoms: _239  and  _240
REMARK   98  A    between atoms: _239  and  _242
REMARK   99  A    between atoms: _242  and  _243
REMARK  100  A    between atoms: _246  and  _248
REMARK  101  A    between atoms: _248  and  _249
REMARK  102  A    between atoms: _248  and  _251
REMARK  103  A    between atoms: _251  and  _252
REMARK  104  A    between atoms: _252  and  _253
REMARK  105  A    between atoms: _253  and  _254
REMARK  106  A    between atoms: _254  and  _255
REMARK  107  A    between atoms: _259  and  _261
REMARK  108  A    between atoms: _261  and  _262
REMARK  109  A    between atoms: _261  and  _264
REMARK  110  A    between atoms: _264  and  _265
REMARK  111  A    between atoms: _271  and  _273
REMARK  112  A    between atoms: _273  and  _274
REMARK  113  A    between atoms: _273  and  _276
REMARK  114  A    between atoms: _276  and  _277
REMARK  115  A    between atoms: _283  and  _285
REMARK  116  A    between atoms: _285  and  _286
REMARK  117  A    between atoms: _285  and  _288
REMARK  118  A    between atoms: _288  and  _289
REMARK  119  A    between atoms: _292  and  _294
REMARK  120  A    between atoms: _294  and  _295
REMARK  121  A    between atoms: _294  and  _297
REMARK  122  A    between atoms: _297  and  _298
REMARK  123  A    between atoms: _300  and  _302
REMARK  124  A    between atoms: _302  and  _303
REMARK  125  A    between atoms: _302  and  _305
REMARK  126  A    between atoms: _305  and  _306
REMARK  127  A    between atoms: _316  and  _318
REMARK  128  A    between atoms: _318  and  _319
REMARK  129  A    between atoms: _321  and  _323
REMARK  130  A    between atoms: _323  and  _324
REMARK  131  A    between atoms: _323  and  _326
REMARK  132  A    between atoms: _326  and  _327
REMARK  133  A    between atoms: _330  and  _332
REMARK  134  A    between atoms: _332  and  _333
REMARK  135  A    between atoms: _335  and  _337
REMARK  136  A    between atoms: _337  and  _338
REMARK  137  A    between atoms: _337  and  _340
REMARK  138  A    between atoms: _340  and  _341
REMARK  139  A    between atoms: _344  and  _346
REMARK  140  A    between atoms: _346  and  _347
REMARK  141  A    between atoms: _350  and  _352
REMARK  142  A    between atoms: _352  and  _353
REMARK  143  A    between atoms: _352  and  _355
REMARK  144  A    between atoms: _355  and  _356
REMARK  145  A    between atoms: _361  and  _362
REMARK  146  A    between atoms: _364  and  _366
REMARK  147  A    between atoms: _366  and  _367
REMARK  148  A    between atoms: _366  and  _369
REMARK  149  A    between atoms: _369  and  _370
REMARK  150  A    between atoms: _370  and  _371
REMARK  151  A    between atoms: _374  and  _376
REMARK  152  A    between atoms: _376  and  _377
REMARK  153  A    between atoms: _376  and  _379
REMARK  154  A    between atoms: _379  and  _380
REMARK  155  A    between atoms: _383  and  _385
REMARK  156  A    between atoms: _385  and  _386
REMARK  157  A    between atoms: _389  and  _391
REMARK  158  A    between atoms: _391  and  _392
REMARK  159  A    between atoms: _391  and  _394
REMARK  160  A    between atoms: _394  and  _395
REMARK  161  A    between atoms: _395  and  _396
REMARK  162  A    between atoms: _396  and  _397
REMARK  163  A    between atoms: _406  and  _408
REMARK  164  A    between atoms: _408  and  _409
REMARK  165  A    between atoms: _408  and  _411
REMARK  166  A    between atoms: _411  and  _412
REMARK  167  A    between atoms: _415  and  _417
REMARK  168  A    between atoms: _417  and  _418
REMARK  169  A    between atoms: _417  and  _420
REMARK  170  A    between atoms: _420  and  _421
REMARK  171  A    between atoms: _431  and  _433
REMARK  172  A    between atoms: _433  and  _434
REMARK  173  A    between atoms: _433  and  _436
REMARK  174  A    between atoms: _436  and  _437
REMARK  175  A    between atoms: _442  and  _443
REMARK  176  A    between atoms: _445  and  _447
REMARK  177  A    between atoms: _447  and  _448
REMARK  178  A    between atoms: _447  and  _450
REMARK  179  A    between atoms: _450  and  _451
REMARK  180  A    between atoms: _451  and  _452
REMARK  181  A    between atoms: _452  and  _453
REMARK  182  A    between atoms: _453  and  _454
REMARK  183  A    between atoms: _458  and  _460
REMARK  184  A    between atoms: _460  and  _461
REMARK  185  A    between atoms: _460  and  _463
REMARK  186  A    between atoms: _463  and  _464
REMARK  187  A    between atoms: _467  and  _469
REMARK  188  A    between atoms: _469  and  _470
REMARK  189  A    between atoms: _469  and  _472
REMARK  190  A    between atoms: _475  and  _477
REMARK  191  A    between atoms: _477  and  _478
REMARK  192  A    between atoms: _477  and  _480
REMARK  193  A    between atoms: _480  and  _481
REMARK  194  A    between atoms: _484  and  _486
REMARK  195  A    between atoms: _486  and  _487
REMARK  196  A    between atoms: _486  and  _489
REMARK  197  A    between atoms: _489  and  _490
REMARK  198  A    between atoms: _492  and  _494
REMARK  199  A    between atoms: _494  and  _495
REMARK  200  A    between atoms: _497  and  _499
REMARK  201  A    between atoms: _499  and  _500
REMARK  202  A    between atoms: _499  and  _502
REMARK  203  A    between atoms: _502  and  _503
REMARK  204  A    between atoms: _506  and  _508
REMARK  205  A    between atoms: _508  and  _509
REMARK  206  A    between atoms: _508  and  _511
REMARK  207  A    between atoms: _511  and  _512
REMARK  208  A    between atoms: _515  and  _517
REMARK  209  A    between atoms: _517  and  _518
REMARK  210  A    between atoms: _517  and  _520
REMARK  211  A    between atoms: _520  and  _521
REMARK  212  A    between atoms: _526  and  _528
REMARK  213  A    between atoms: _528  and  _529
REMARK  214  A    between atoms: _528  and  _531
REMARK  215  A    between atoms: _531  and  _532
REMARK  216  A    between atoms: _535  and  _537
REMARK  217  A    between atoms: _537  and  _538
REMARK  218  A    between atoms: _537  and  _540
REMARK  219  A    between atoms: _540  and  _541
REMARK  220  A    between atoms: _541  and  _542
REMARK  221  A    between atoms: _542  and  _543
REMARK  222  A    between atoms: _552  and  _554
REMARK  223  A    between atoms: _554  and  _555
REMARK  224  A    between atoms: _554  and  _557
REMARK  225  A    between atoms: _557  and  _558
REMARK  226  A    between atoms: _558  and  _559
REMARK  227  A    between atoms: _559  and  _560
REMARK  228  A    between atoms: _569  and  _571
REMARK  229  A    between atoms: _571  and  _572
REMARK  230  A    between atoms: _571  and  _574
REMARK  231  A    between atoms: _574  and  _575
REMARK  232  A    between atoms: _575  and  _576
REMARK  233  A    between atoms: _576  and  _577
REMARK  234  A    between atoms: _577  and  _578
REMARK  235  A    between atoms: _582  and  _584
REMARK  236  A    between atoms: _584  and  _585
REMARK  237  A    between atoms: _584  and  _587
REMARK  238  A    between atoms: _587  and  _588
REMARK  239  A    between atoms: _590  and  _592
REMARK  240  A    between atoms: _592  and  _593
REMARK  241  A    between atoms: _592  and  _595
REMARK  242  A    between atoms: _595  and  _596
REMARK  243  A    between atoms: _599  and  _601
REMARK  244  A    between atoms: _601  and  _602
REMARK  245  A    between atoms: _601  and  _604
REMARK  246  A    between atoms: _607  and  _609
REMARK  247  A    between atoms: _609  and  _610
REMARK  248  A    between atoms: _612  and  _614
REMARK  249  A    between atoms: _614  and  _615
REMARK                            x       y       z     vdW  Elec       q    Type
REMARK                         _______ _______ _______ _____ _____    ______ ____
ROOT
ATOM      1  C   GLY A   1      34.234  -1.543  17.408  0.00  0.00    +0.240 C 
ATOM      2  O   GLY A   1      33.038  -1.312  17.559  0.00  0.00    -0.274 OA
ATOM      3  N   ILE A   2      34.777  -1.753  16.219  0.00  0.00    -0.298 N 
ATOM      4  H   ILE A   2      35.795  -1.951  16.137  0.00  0.00    +0.150 HD
ENDROOT
BRANCH   1   5
ATOM      5  CA  GLY A   1      35.165  -1.606  18.594  0.00  0.00    +0.169 C 
BRANCH   5   6
ATOM      6  N   GLY A   1      34.469  -1.394  19.848  0.00  0.00    -0.236 NA
ATOM      7  H   GLY A   1      33.442  -1.549  19.909  0.00  0.00    +0.142 HD
ENDBRANCH   5   6
ENDBRANCH   1   5
BRANCH   3   8
ATOM      8  CA  ILE A   2      33.947  -1.706  15.032  0.00  0.00    +0.137 C 
BRANCH   8   9
ATOM      9  CB  ILE A   2      34.096  -0.344  14.307  0.00  0.00    +0.026 C 
ATOM     10  CG2 ILE A   2      35.520  -0.156  13.829  0.00  0.00    +0.002 C 
BRANCH   9  11
ATOM     11  CG1 ILE A   2      33.143  -0.273  13.115  0.00  0.00    +0.002 C 
ATOM     12  CD1 ILE A   2      33.097   1.091  12.475  0.00  0.00    +0.000 C 
ENDBRANCH   9  11
ENDBRANCH   8   9
BRANCH   8  13
ATOM     13  C   ILE A   2      34.303  -2.825  14.075  0.00  0.00    +0.227 C 
ATOM     14  O   ILE A   2      35.466  -3.046  13.777  0.00  0.00    -0.286 OA
ENDBRANCH   8  13
ENDBRANCH   3   8
TORSDOF 6
REMARK  Name = ../refined-set-2016/3ckp/3ckp_pocket.pdb
REMARK  249 active torsions:
REMARK  status: ('A' for Active; 'I' for Inactive)
REMARK    1  A    between atoms: _1  and  _3
REMARK    2  A    between atoms: _3  and  _4
REMARK    3  A    between atoms: _3  and  _6
REMARK    4  A    between atoms: _6  and  _7
REMARK    5  A    between atoms: _7  and  _8
REMARK    6  A    between atoms: _8  and  _9
REMARK    7  A    between atoms: _9  and  _10
REMARK    8  A    between atoms: _14  and  _16
REMARK    9  A    between atoms: _16  and  _17
REMARK   10  A    between atoms: _16  and  _19
REMARK   11  A    between atoms: _19  and  _20
REMARK   12  A    between atoms: _22  and  _24
REMARK   13  A    between atoms: _24  and  _25
REMARK   14  A    between atoms: _27  and  _29
REMARK   15  A    between atoms: _29  and  _30
REMARK   16  A    between atoms: _29  and  _32
REMARK   17  A    between atoms: _32  and  _33
REMARK   18  A    between atoms: _33  and  _34
REMARK   19  A    between atoms: _39  and  _41
REMARK   20  A    between atoms: _41  and  _42
REMARK   21  A    between atoms: _44  and  _46
REMARK   22  A    between atoms: _46  and  _47
REMARK   23  A    between atoms: _46  and  _49
REMARK   24  A    between atoms: _49  and  _50
REMARK   25  A    between atoms: _55  and  _56
REMARK   26  A    between atoms: _58  and  _60
REMARK   27  A    between atoms: _60  and  _61
REMARK   28  A    between atoms: _60  and  _63
REMARK   29  A    between atoms: _63  and  _64
REMARK   30  A    between atoms: _69  and  _70
REMARK   31  A    between atoms: _72  and  _74
REMARK   32  A    between atoms: _74  and  _75
REMARK   33  A    between atoms: _74  and  _77
REMARK   34  A    between atoms: _77  and  _78
REMARK   35  A    between atoms: _81  and  _83
REMARK   36  A    between atoms: _83  and  _84
REMARK   37  A    between atoms: _83  and  _86
REMARK   38  A    between atoms: _89  and  _91
REMARK   39  A    between atoms: _91  and  _92
REMARK   40  A    between atoms: _91  and  _94
REMARK   41  A    between atoms: _94  and  _95
REMARK   42  A    between atoms: _98  and  _100
REMARK   43  A    between atoms: _100  and  _101
REMARK   44  A    between atoms: _100  and  _103
REMARK   45  A    between atoms: _103  and  _104
REMARK   46  A    between atoms: _107  and  _109
REMARK   47  A    between atoms: _109  and  _110
REMARK   48  A    between atoms: _112  and  _114
REMARK   49  A    between atoms: _114  and  _115
REMARK   50  A    between atoms: _114  and  _117
REMARK   51  A    between atoms: _117  and  _118
REMARK   52  A    between atoms: _120  and  _122
REMARK   53  A    between atoms: _122  and  _123
REMARK   54  A    between atoms: _122  and  _125
REMARK   55  A    between atoms: _125  and  _126
REMARK   56  A    between atoms: _128  and  _130
REMARK   57  A    between atoms: _130  and  _131
REMARK   58  A    between atoms: _130  and  _133
REMARK   59  A    between atoms: _133  and  _134
REMARK   60  A    between atoms: _139  and  _141
REMARK   61  A    between atoms: _141  and  _142
REMARK   62  A    between atoms: _141  and  _144
REMARK   63  A    between atoms: _144  and  _145
REMARK   64  A    between atoms: _150  and  _151
REMARK   65  A    between atoms: _153  and  _155
REMARK   66  A    between atoms: _155  and  _156
REMARK   67  A    between atoms: _155  and  _158
REMARK   68  A    between atoms: _162  and  _163
REMARK   69  A    between atoms: _168  and  _170
REMARK   70  A    between atoms: _170  and  _171
REMARK   71  A    between atoms: _170  and  _173
REMARK   72  A    between atoms: _173  and  _174
REMARK   73  A    between atoms: _179  and  _180
REMARK   74  A    between atoms: _182  and  _184
REMARK   75  A    between atoms: _184  and  _185
REMARK   76  A    between atoms: _184  and  _187
REMARK   77  A    between atoms: _187  and  _188
REMARK   78  A    between atoms: _191  and  _193
REMARK   79  A    between atoms: _193  and  _194
REMARK   80  A    between atoms: _193  and  _196
REMARK   81  A    between atoms: _196  and  _197
REMARK   82  A    between atoms: _197  and  _198
REMARK   83  A    between atoms: _203  and  _205
REMARK   84  A    between atoms: _205  and  _206
REMARK   85  A    between atoms: _208  and  _210
REMARK   86  A    between atoms: _210  and  _211
REMARK   87  A    between atoms: _210  and  _213
REMARK   88  A    between atoms: _213  and  _214
REMARK   89  A    between atoms: _214  and  _215
REMARK   90  A    between atoms: _215  and  _216
REMARK   91  A    between atoms: _216  and  _217
REMARK   92  A    between atoms: _221  and  _223
REMARK   93  A    between atoms: _223  and  _224
REMARK   94  A    between atoms: _223  and  _226
REMARK   95  A    between atoms: _226  and  _227
REMARK   96  A    between atoms: _237  and  _239
REMARK   97  A    between atoms: _239  and  _240
REMARK   98  A    between atoms: _239  and  _242
REMARK   99  A    between atoms: _242  and  _243
REMARK  100  A    between atoms: _246  and  _248
REMARK  101  A    between atoms: _248  and  _249
REMARK  102  A    between atoms: _248  and  _251
REMARK  103  A    between atoms: _251  and  _252
REMARK  104  A    between atoms: _252  and  _253
REMARK  105  A    between atoms: _253  and  _254
REMARK  106  A    between atoms: _254  and  _255
REMARK  107  A    between atoms: _259  and  _261
REMARK  108  A    between atoms: _261  and  _262
REMARK  109  A    between atoms: _261  and  _264
REMARK  110  A    between atoms: _264  and  _265
REMARK  111  A    between atoms: _271  and  _273
REMARK  112  A    between atoms: _273  and  _274
REMARK  113  A    between atoms: _273  and  _276
REMARK  114  A    between atoms: _276  and  _277
REMARK  115  A    between atoms: _283  and  _285
REMARK  116  A    between atoms: _285  and  _286
REMARK  117  A    between atoms: _285  and  _288
REMARK  118  A    between atoms: _288  and  _289
REMARK  119  A    between atoms: _292  and  _294
REMARK  120  A    between atoms: _294  and  _295
REMARK  121  A    between atoms: _294  and  _297
REMARK  122  A    between atoms: _297  and  _298
REMARK  123  A    between atoms: _300  and  _302
REMARK  124  A    between atoms: _302  and  _303
REMARK  125  A    between atoms: _302  and  _305
REMARK  126  A    between atoms: _305  and  _306
REMARK  127  A    between atoms: _316  and  _318
REMARK  128  A    between atoms: _318  and  _319
REMARK  129  A    between atoms: _321  and  _323
REMARK  130  A    between atoms: _323  and  _324
REMARK  131  A    between atoms: _323  and  _326
REMARK  132  A    between atoms: _326  and  _327
REMARK  133  A    between atoms: _330  and  _332
REMARK  134  A    between atoms: _332  and  _333
REMARK  135  A    between atoms: _335  and  _337
REMARK  136  A    between atoms: _337  and  _338
REMARK  137  A    between atoms: _337  and  _340
REMARK  138  A    between atoms: _340  and  _341
REMARK  139  A    between atoms: _344  and  _346
REMARK  140  A    between atoms: _346  and  _347
REMARK  141  A    between atoms: _350  and  _352
REMARK  142  A    between atoms: _352  and  _353
REMARK  143  A    between atoms: _352  and  _355
REMARK  144  A    between atoms: _355  and  _356
REMARK  145  A    between atoms: _361  and  _362
REMARK  146  A    between atoms: _364  and  _366
REMARK  147  A    between atoms: _366  and  _367
REMARK  148  A    between atoms: _366  and  _369
REMARK  149  A    between atoms: _369  and  _370
REMARK  150  A    between atoms: _370  and  _371
REMARK  151  A    between atoms: _374  and  _376
REMARK  152  A    between atoms: _376  and  _377
REMARK  153  A    between atoms: _376  and  _379
REMARK  154  A    between atoms: _379  and  _380
REMARK  155  A    between atoms: _383  and  _385
REMARK  156  A    between atoms: _385  and  _386
REMARK  157  A    between atoms: _389  and  _391
REMARK  158  A    between atoms: _391  and  _392
REMARK  159  A    between atoms: _391  and  _394
REMARK  160  A    between atoms: _394  and  _395
REMARK  161  A    between atoms: _395  and  _396
REMARK  162  A    between atoms: _396  and  _397
REMARK  163  A    between atoms: _406  and  _408
REMARK  164  A    between atoms: _408  and  _409
REMARK  165  A    between atoms: _408  and  _411
REMARK  166  A    between atoms: _411  and  _412
REMARK  167  A    between atoms: _415  and  _417
REMARK  168  A    between atoms: _417  and  _418
REMARK  169  A    between atoms: _417  and  _420
REMARK  170  A    between atoms: _420  and  _421
REMARK  171  A    between atoms: _431  and  _433
REMARK  172  A    between atoms: _433  and  _434
REMARK  173  A    between atoms: _433  and  _436
REMARK  174  A    between atoms: _436  and  _437
REMARK  175  A    between atoms: _442  and  _443
REMARK  176  A    between atoms: _445  and  _447
REMARK  177  A    between atoms: _447  and  _448
REMARK  178  A    between atoms: _447  and  _450
REMARK  179  A    between atoms: _450  and  _451
REMARK  180  A    between atoms: _451  and  _452
REMARK  181  A    between atoms: _452  and  _453
REMARK  182  A    between atoms: _453  and  _454
REMARK  183  A    between atoms: _458  and  _460
REMARK  184  A    between atoms: _460  and  _461
REMARK  185  A    between atoms: _460  and  _463
REMARK  186  A    between atoms: _463  and  _464
REMARK  187  A    between atoms: _467  and  _469
REMARK  188  A    between atoms: _469  and  _470
REMARK  189  A    between atoms: _469  and  _472
REMARK  190  A    between atoms: _475  and  _477
REMARK  191  A    between atoms: _477  and  _478
REMARK  192  A    between atoms: _477  and  _480
REMARK  193  A    between atoms: _480  and  _481
REMARK  194  A    between atoms: _484  and  _486
REMARK  195  A    between atoms: _486  and  _487
REMARK  196  A    between atoms: _486  and  _489
REMARK  197  A    between atoms: _489  and  _490
REMARK  198  A    between atoms: _492  and  _494
REMARK  199  A    between atoms: _494  and  _495
REMARK  200  A    between atoms: _497  and  _499
REMARK  201  A    between atoms: _499  and  _500
REMARK  202  A    between atoms: _499  and  _502
REMARK  203  A    between atoms: _502  and  _503
REMARK  204  A    between atoms: _506  and  _508
REMARK  205  A    between atoms: _508  and  _509
REMARK  206  A    between atoms: _508  and  _511
REMARK  207  A    between atoms: _511  and  _512
REMARK  208  A    between atoms: _515  and  _517
REMARK  209  A    between atoms: _517  and  _518
REMARK  210  A    between atoms: _517  and  _520
REMARK  211  A    between atoms: _520  and  _521
REMARK  212  A    between atoms: _526  and  _528
REMARK  213  A    between atoms: _528  and  _529
REMARK  214  A    between atoms: _528  and  _531
REMARK  215  A    between atoms: _531  and  _532
REMARK  216  A    between atoms: _535  and  _537
REMARK  217  A    between atoms: _537  and  _538
REMARK  218  A    between atoms: _537  and  _540
REMARK  219  A    between atoms: _540  and  _541
REMARK  220  A    between atoms: _541  and  _542
REMARK  221  A    between atoms: _542  and  _543
REMARK  222  A    between atoms: _552  and  _554
REMARK  223  A    between atoms: _554  and  _555
REMARK  224  A    between atoms: _554  and  _557
REMARK  225  A    between atoms: _557  and  _558
REMARK  226  A    between atoms: _558  and  _559
REMARK  227  A    between atoms: _559  and  _560
REMARK  228  A    between atoms: _569  and  _571
REMARK  229  A    between atoms: _571  and  _572
REMARK  230  A    between atoms: _571  and  _574
REMARK  231  A    between atoms: _574  and  _575
REMARK  232  A    between atoms: _575  and  _576
REMARK  233  A    between atoms: _576  and  _577
REMARK  234  A    between atoms: _577  and  _578
REMARK  235  A    between atoms: _582  and  _584
REMARK  236  A    between atoms: _584  and  _585
REMARK  237  A    between atoms: _584  and  _587
REMARK  238  A    between atoms: _587  and  _588
REMARK  239  A    between atoms: _590  and  _592
REMARK  240  A    between atoms: _592  and  _593
REMARK  241  A    between atoms: _592  and  _595
REMARK  242  A    between atoms: _595  and  _596
REMARK  243  A    between atoms: _599  and  _601
REMARK  244  A    between atoms: _601  and  _602
REMARK  245  A    between atoms: _601  and  _604
REMARK  246  A    between atoms: _607  and  _609
REMARK  247  A    between atoms: _609  and  _610
REMARK  248  A    between atoms: _612  and  _614
REMARK  249  A    between atoms: _614  and  _615
REMARK                            x       y       z     vdW  Elec       q    Type
REMARK                         _______ _______ _______ _____ _____    ______ ____
ROOT
ATOM      1  CA  ALA A   3      32.434  -4.292   3.607  0.00  0.00    +0.149 C 
ATOM      2  CB  ALA A   3      32.654  -2.799   3.377  0.00  0.00    +0.031 C 
ENDROOT
BRANCH   1   4
ATOM      3  C   LEU A   2      31.893  -5.755   5.478  0.00  0.00    +0.241 C 
ATOM      4  N   ALA A   3      32.323  -4.572   5.038  0.00  0.00    -0.297 N 
ATOM      5  H   ALA A   3      32.584  -3.836   5.724  0.00  0.00    +0.150 HD
ATOM      6  O   LEU A   2      31.561  -6.649   4.714  0.00  0.00    -0.273 OA
BRANCH   3   7
ATOM      7  CA  LEU A   2      31.823  -5.973   6.997  0.00  0.00    +0.149 C 
BRANCH   7  10
ATOM      8  C   GLY A   1      33.399  -4.645   8.302  0.00  0.00    +0.240 C 
ATOM      9  O   GLY A   1      34.291  -5.475   8.157  0.00  0.00    -0.274 OA
ATOM     10  N   LEU A   2      32.186  -4.793   7.781  0.00  0.00    -0.297 N 
ATOM     11  H   LEU A   2      31.475  -4.050   7.935  0.00  0.00    +0.150 HD
BRANCH   8  12
ATOM     12  CA  GLY A   1      33.652  -3.382   9.104  0.00  0.00    +0.169 C 
BRANCH  12  13
ATOM     13  N   GLY A   1      33.986  -3.773  10.456  0.00  0.00    -0.236 NA
ATOM     14  H   GLY A   1      34.970  -3.717  10.789  0.00  0.00    +0.142 HD
ENDBRANCH  12  13
ENDBRANCH   8  12
ENDBRANCH   7  10
BRANCH   7  15
ATOM     15  CB  LEU A   2      30.414  -6.440   7.378  0.00  0.00    +0.029 C 
BRANCH  15  16
ATOM     16  CG  LEU A   2      30.208  -7.057   8.761  0.00  0.00    +0.002 C 
ATOM     17  CD2 LEU A   2      28.729  -7.287   9.036  0.00  0.00    +0.000 C 
ATOM     18  CD1 LEU A   2      30.957  -8.361   8.832  0.00  0.00    +0.000 C 
ENDBRANCH  15  16
ENDBRANCH   7  15
ENDBRANCH   3   7
ENDBRANCH   1   4
BRANCH   1  19
ATOM     19  C   ALA A   3      33.568  -5.099   2.963  0.00  0.00    +0.241 C 
ATOM     20  O   ALA A   3      34.046  -6.095   3.535  0.00  0.00    -0.273 OA
ATOM     21  N   TYR A   4      33.998  -4.664   1.776  0.00  0.00    -0.298 N 
ATOM     22  H   TYR A   4      33.566  -3.812   1.366  0.00  0.00    +0.150 HD
BRANCH  21  23
ATOM     23  CA  TYR A   4      35.059  -5.349   1.033  0.00  0.00    +0.141 C 
BRANCH  23  24
ATOM     24  C   TYR A   4      36.447  -4.752   1.172  0.00  0.00    +0.227 C 
ATOM     25  O   TYR A   4      36.601  -3.573   1.425  0.00  0.00    -0.286 OA
ENDBRANCH  23  24
BRANCH  23  26
ATOM     26  CB  TYR A   4      34.718  -5.407  -0.461  0.00  0.00    +0.054 C 
BRANCH  26  27
ATOM     27  CG  TYR A   4      33.489  -6.201  -0.813  0.00  0.00    -0.020 A 
ATOM     28  CD2 TYR A   4      32.246  -5.583  -0.947  0.00  0.00    -0.001 A 
ATOM     29  CE2 TYR A   4      31.100  -6.330  -1.262  0.00  0.00    +0.036 A 
ATOM     30  CZ  TYR A   4      31.210  -7.703  -1.433  0.00  0.00    +0.134 A 
ATOM     31  CE1 TYR A   4      32.432  -8.326  -1.303  0.00  0.00    +0.036 A 
ATOM     32  CD1 TYR A   4      33.563  -7.579  -0.999  0.00  0.00    -0.001 A 
BRANCH  30  33
ATOM     33  OH  TYR A   4      30.097  -8.464  -1.706  0.00  0.00    -0.506 OA
ATOM     34  HH  TYR A   4      30.226  -8.939  -2.565  0.00  0.00    +0.292 HD
ENDBRANCH  30  33
ENDBRANCH  26  27
ENDBRANCH  23  26
ENDBRANCH  21  23
ENDBRANCH   1  19
TORSDOF 13
REMARK  Name = ../refined-set-2016/3ckp/3ckp_pocket.pdb
REMARK  249 active torsions:
REMARK  status: ('A' for Active; 'I' for Inactive)
REMARK    1  A    between atoms: _1  and  _3
REMARK    2  A    between atoms: _3  and  _4
REMARK    3  A    between atoms: _3  and  _6
REMARK    4  A    between atoms: _6  and  _7
REMARK    5  A    between atoms: _7  and  _8
REMARK    6  A    between atoms: _8  and  _9
REMARK    7  A    between atoms: _9  and  _10
REMARK    8  A    between atoms: _14  and  _16
REMARK    9  A    between atoms: _16  and  _17
REMARK   10  A    between atoms: _16  and  _19
REMARK   11  A    between atoms: _19  and  _20
REMARK   12  A    between atoms: _22  and  _24
REMARK   13  A    between atoms: _24  and  _25
REMARK   14  A    between atoms: _27  and  _29
REMARK   15  A    between atoms: _29  and  _30
REMARK   16  A    between atoms: _29  and  _32
REMARK   17  A    between atoms: _32  and  _33
REMARK   18  A    between atoms: _33  and  _34
REMARK   19  A    between atoms: _39  and  _41
REMARK   20  A    between atoms: _41  and  _42
REMARK   21  A    between atoms: _44  and  _46
REMARK   22  A    between atoms: _46  and  _47
REMARK   23  A    between atoms: _46  and  _49
REMARK   24  A    between atoms: _49  and  _50
REMARK   25  A    between atoms: _55  and  _56
REMARK   26  A    between atoms: _58  and  _60
REMARK   27  A    between atoms: _60  and  _61
REMARK   28  A    between atoms: _60  and  _63
REMARK   29  A    between atoms: _63  and  _64
REMARK   30  A    between atoms: _69  and  _70
REMARK   31  A    between atoms: _72  and  _74
REMARK   32  A    between atoms: _74  and  _75
REMARK   33  A    between atoms: _74  and  _77
REMARK   34  A    between atoms: _77  and  _78
REMARK   35  A    between atoms: _81  and  _83
REMARK   36  A    between atoms: _83  and  _84
REMARK   37  A    between atoms: _83  and  _86
REMARK   38  A    between atoms: _89  and  _91
REMARK   39  A    between atoms: _91  and  _92
REMARK   40  A    between atoms: _91  and  _94
REMARK   41  A    between atoms: _94  and  _95
REMARK   42  A    between atoms: _98  and  _100
REMARK   43  A    between atoms: _100  and  _101
REMARK   44  A    between atoms: _100  and  _103
REMARK   45  A    between atoms: _103  and  _104
REMARK   46  A    between atoms: _107  and  _109
REMARK   47  A    between atoms: _109  and  _110
REMARK   48  A    between atoms: _112  and  _114
REMARK   49  A    between atoms: _114  and  _115
REMARK   50  A    between atoms: _114  and  _117
REMARK   51  A    between atoms: _117  and  _118
REMARK   52  A    between atoms: _120  and  _122
REMARK   53  A    between atoms: _122  and  _123
REMARK   54  A    between atoms: _122  and  _125
REMARK   55  A    between atoms: _125  and  _126
REMARK   56  A    between atoms: _128  and  _130
REMARK   57  A    between atoms: _130  and  _131
REMARK   58  A    between atoms: _130  and  _133
REMARK   59  A    between atoms: _133  and  _134
REMARK   60  A    between atoms: _139  and  _141
REMARK   61  A    between atoms: _141  and  _142
REMARK   62  A    between atoms: _141  and  _144
REMARK   63  A    between atoms: _144  and  _145
REMARK   64  A    between atoms: _150  and  _151
REMARK   65  A    between atoms: _153  and  _155
REMARK   66  A    between atoms: _155  and  _156
REMARK   67  A    between atoms: _155  and  _158
REMARK   68  A    between atoms: _162  and  _163
REMARK   69  A    between atoms: _168  and  _170
REMARK   70  A    between atoms: _170  and  _171
REMARK   71  A    between atoms: _170  and  _173
REMARK   72  A    between atoms: _173  and  _174
REMARK   73  A    between atoms: _179  and  _180
REMARK   74  A    between atoms: _182  and  _184
REMARK   75  A    between atoms: _184  and  _185
REMARK   76  A    between atoms: _184  and  _187
REMARK   77  A    between atoms: _187  and  _188
REMARK   78  A    between atoms: _191  and  _193
REMARK   79  A    between atoms: _193  and  _194
REMARK   80  A    between atoms: _193  and  _196
REMARK   81  A    between atoms: _196  and  _197
REMARK   82  A    between atoms: _197  and  _198
REMARK   83  A    between atoms: _203  and  _205
REMARK   84  A    between atoms: _205  and  _206
REMARK   85  A    between atoms: _208  and  _210
REMARK   86  A    between atoms: _210  and  _211
REMARK   87  A    between atoms: _210  and  _213
REMARK   88  A    between atoms: _213  and  _214
REMARK   89  A    between atoms: _214  and  _215
REMARK   90  A    between atoms: _215  and  _216
REMARK   91  A    between atoms: _216  and  _217
REMARK   92  A    between atoms: _221  and  _223
REMARK   93  A    between atoms: _223  and  _224
REMARK   94  A    between atoms: _223  and  _226
REMARK   95  A    between atoms: _226  and  _227
REMARK   96  A    between atoms: _237  and  _239
REMARK   97  A    between atoms: _239  and  _240
REMARK   98  A    between atoms: _239  and  _242
REMARK   99  A    between atoms: _242  and  _243
REMARK  100  A    between atoms: _246  and  _248
REMARK  101  A    between atoms: _248  and  _249
REMARK  102  A    between atoms: _248  and  _251
REMARK  103  A    between atoms: _251  and  _252
REMARK  104  A    between atoms: _252  and  _253
REMARK  105  A    between atoms: _253  and  _254
REMARK  106  A    between atoms: _254  and  _255
REMARK  107  A    between atoms: _259  and  _261
REMARK  108  A    between atoms: _261  and  _262
REMARK  109  A    between atoms: _261  and  _264
REMARK  110  A    between atoms: _264  and  _265
REMARK  111  A    between atoms: _271  and  _273
REMARK  112  A    between atoms: _273  and  _274
REMARK  113  A    between atoms: _273  and  _276
REMARK  114  A    between atoms: _276  and  _277
REMARK  115  A    between atoms: _283  and  _285
REMARK  116  A    between atoms: _285  and  _286
REMARK  117  A    between atoms: _285  and  _288
REMARK  118  A    between atoms: _288  and  _289
REMARK  119  A    between atoms: _292  and  _294
REMARK  120  A    between atoms: _294  and  _295
REMARK  121  A    between atoms: _294  and  _297
REMARK  122  A    between atoms: _297  and  _298
REMARK  123  A    between atoms: _300  and  _302
REMARK  124  A    between atoms: _302  and  _303
REMARK  125  A    between atoms: _302  and  _305
REMARK  126  A    between atoms: _305  and  _306
REMARK  127  A    between atoms: _316  and  _318
REMARK  128  A    between atoms: _318  and  _319
REMARK  129  A    between atoms: _321  and  _323
REMARK  130  A    between atoms: _323  and  _324
REMARK  131  A    between atoms: _323  and  _326
REMARK  132  A    between atoms: _326  and  _327
REMARK  133  A    between atoms: _330  and  _332
REMARK  134  A    between atoms: _332  and  _333
REMARK  135  A    between atoms: _335  and  _337
REMARK  136  A    between atoms: _337  and  _338
REMARK  137  A    between atoms: _337  and  _340
REMARK  138  A    between atoms: _340  and  _341
REMARK  139  A    between atoms: _344  and  _346
REMARK  140  A    between atoms: _346  and  _347
REMARK  141  A    between atoms: _350  and  _352
REMARK  142  A    between atoms: _352  and  _353
REMARK  143  A    between atoms: _352  and  _355
REMARK  144  A    between atoms: _355  and  _356
REMARK  145  A    between atoms: _361  and  _362
REMARK  146  A    between atoms: _364  and  _366
REMARK  147  A    between atoms: _366  and  _367
REMARK  148  A    between atoms: _366  and  _369
REMARK  149  A    between atoms: _369  and  _370
REMARK  150  A    between atoms: _370  and  _371
REMARK  151  A    between atoms: _374  and  _376
REMARK  152  A    between atoms: _376  and  _377
REMARK  153  A    between atoms: _376  and  _379
REMARK  154  A    between atoms: _379  and  _380
REMARK  155  A    between atoms: _383  and  _385
REMARK  156  A    between atoms: _385  and  _386
REMARK  157  A    between atoms: _389  and  _391
REMARK  158  A    between atoms: _391  and  _392
REMARK  159  A    between atoms: _391  and  _394
REMARK  160  A    between atoms: _394  and  _395
REMARK  161  A    between atoms: _395  and  _396
REMARK  162  A    between atoms: _396  and  _397
REMARK  163  A    between atoms: _406  and  _408
REMARK  164  A    between atoms: _408  and  _409
REMARK  165  A    between atoms: _408  and  _411
REMARK  166  A    between atoms: _411  and  _412
REMARK  167  A    between atoms: _415  and  _417
REMARK  168  A    between atoms: _417  and  _418
REMARK  169  A    between atoms: _417  and  _420
REMARK  170  A    between atoms: _420  and  _421
REMARK  171  A    between atoms: _431  and  _433
REMARK  172  A    between atoms: _433  and  _434
REMARK  173  A    between atoms: _433  and  _436
REMARK  174  A    between atoms: _436  and  _437
REMARK  175  A    between atoms: _442  and  _443
REMARK  176  A    between atoms: _445  and  _447
REMARK  177  A    between atoms: _447  and  _448
REMARK  178  A    between atoms: _447  and  _450
REMARK  179  A    between atoms: _450  and  _451
REMARK  180  A    between atoms: _451  and  _452
REMARK  181  A    between atoms: _452  and  _453
REMARK  182  A    between atoms: _453  and  _454
REMARK  183  A    between atoms: _458  and  _460
REMARK  184  A    between atoms: _460  and  _461
REMARK  185  A    between atoms: _460  and  _463
REMARK  186  A    between atoms: _463  and  _464
REMARK  187  A    between atoms: _467  and  _469
REMARK  188  A    between atoms: _469  and  _470
REMARK  189  A    between atoms: _469  and  _472
REMARK  190  A    between atoms: _475  and  _477
REMARK  191  A    between atoms: _477  and  _478
REMARK  192  A    between atoms: _477  and  _480
REMARK  193  A    between atoms: _480  and  _481
REMARK  194  A    between atoms: _484  and  _486
REMARK  195  A    between atoms: _486  and  _487
REMARK  196  A    between atoms: _486  and  _489
REMARK  197  A    between atoms: _489  and  _490
REMARK  198  A    between atoms: _492  and  _494
REMARK  199  A    between atoms: _494  and  _495
REMARK  200  A    between atoms: _497  and  _499
REMARK  201  A    between atoms: _499  and  _500
REMARK  202  A    between atoms: _499  and  _502
REMARK  203  A    between atoms: _502  and  _503
REMARK  204  A    between atoms: _506  and  _508
REMARK  205  A    between atoms: _508  and  _509
REMARK  206  A    between atoms: _508  and  _511
REMARK  207  A    between atoms: _511  and  _512
REMARK  208  A    between atoms: _515  and  _517
REMARK  209  A    between atoms: _517  and  _518
REMARK  210  A    between atoms: _517  and  _520
REMARK  211  A    between atoms: _520  and  _521
REMARK  212  A    between atoms: _526  and  _528
REMARK  213  A    between atoms: _528  and  _529
REMARK  214  A    between atoms: _528  and  _531
REMARK  215  A    between atoms: _531  and  _532
REMARK  216  A    between atoms: _535  and  _537
REMARK  217  A    between atoms: _537  and  _538
REMARK  218  A    between atoms: _537  and  _540
REMARK  219  A    between atoms: _540  and  _541
REMARK  220  A    between atoms: _541  and  _542
REMARK  221  A    between atoms: _542  and  _543
REMARK  222  A    between atoms: _552  and  _554
REMARK  223  A    between atoms: _554  and  _555
REMARK  224  A    between atoms: _554  and  _557
REMARK  225  A    between atoms: _557  and  _558
REMARK  226  A    between atoms: _558  and  _559
REMARK  227  A    between atoms: _559  and  _560
REMARK  228  A    between atoms: _569  and  _571
REMARK  229  A    between atoms: _571  and  _572
REMARK  230  A    between atoms: _571  and  _574
REMARK  231  A    between atoms: _574  and  _575
REMARK  232  A    between atoms: _575  and  _576
REMARK  233  A    between atoms: _576  and  _577
REMARK  234  A    between atoms: _577  and  _578
REMARK  235  A    between atoms: _582  and  _584
REMARK  236  A    between atoms: _584  and  _585
REMARK  237  A    between atoms: _584  and  _587
REMARK  238  A    between atoms: _587  and  _588
REMARK  239  A    between atoms: _590  and  _592
REMARK  240  A    between atoms: _592  and  _593
REMARK  241  A    between atoms: _592  and  _595
REMARK  242  A    between atoms: _595  and  _596
REMARK  243  A    between atoms: _599  and  _601
REMARK  244  A    between atoms: _601  and  _602
REMARK  245  A    between atoms: _601  and  _604
REMARK  246  A    between atoms: _607  and  _609
REMARK  247  A    between atoms: _609  and  _610
REMARK  248  A    between atoms: _612  and  _614
REMARK  249  A    between atoms: _614  and  _615
REMARK                            x       y       z     vdW  Elec       q    Type
REMARK                         _______ _______ _______ _____ _____    ______ ____
ROOT
ATOM      1  C   ILE A   2      38.728   0.068   2.292  0.00  0.00    +0.241 C 
ATOM      2  O   ILE A   2      38.613   1.019   3.061  0.00  0.00    -0.273 OA
ATOM      3  N   ALA A   3      39.409  -1.028   2.604  0.00  0.00    -0.297 N 
ATOM      4  H   ALA A   3      39.483  -1.806   1.918  0.00  0.00    +0.150 HD
ENDROOT
BRANCH   3   5
ATOM      5  CA  ALA A   3      40.053  -1.142   3.908  0.00  0.00    +0.149 C 
ATOM      6  CB  ALA A   3      40.278  -2.601   4.252  0.00  0.00    +0.031 C 
BRANCH   5   7
ATOM      7  C   ALA A   3      41.376  -0.380   3.952  0.00  0.00    +0.241 C 
ATOM      8  N   ARG A   4      41.686   0.209   5.101  0.00  0.00    -0.298 N 
ATOM      9  H   ARG A   4      41.021   0.154   5.898  0.00  0.00    +0.150 HD
ATOM     10  O   ALA A   3      42.090  -0.303   2.956  0.00  0.00    -0.273 OA
BRANCH   8  11
ATOM     11  CA  ARG A   4      42.940   0.930   5.265  0.00  0.00    +0.137 C 
BRANCH  11  12
ATOM     12  C   ARG A   4      43.898  -0.045   5.960  0.00  0.00    +0.227 C 
ATOM     13  O   ARG A   4      43.462  -0.909   6.715  0.00  0.00    -0.286 OA
ENDBRANCH  11  12
BRANCH  11  14
ATOM     14  CB  ARG A   4      42.731   2.168   6.145  0.00  0.00    +0.031 C 
BRANCH  14  15
ATOM     15  CG  ARG A   4      41.594   3.075   5.701  0.00  0.00    +0.045 C 
BRANCH  15  16
ATOM     16  CD  ARG A   4      41.743   3.510   4.247  0.00  0.00    +0.174 C 
BRANCH  16  17
ATOM     17  NE  ARG A   4      40.550   4.210   3.769  0.00  0.00    -0.265 N 
ATOM     18  CZ  ARG A   4      40.234   5.464   4.080  0.00  0.00    +0.342 C 
ATOM     19  NH2 ARG A   4      41.026   6.186   4.869  0.00  0.00    -0.292 N 
ATOM     20 HH21 ARG A   4      41.901   5.771   5.248  0.00  0.00    +0.255 HD
ATOM     21 HH22 ARG A   4      40.770   7.166   5.106  0.00  0.00    +0.255 HD
ATOM     22  NH1 ARG A   4      39.114   5.996   3.610  0.00  0.00    -0.292 N 
ATOM     23 HH11 ARG A   4      38.863   6.976   3.851  0.00  0.00    +0.255 HD
ATOM     24 HH12 ARG A   4      38.487   5.433   3.001  0.00  0.00    +0.255 HD
ATOM     25  HE  ARG A   4      39.904   3.690   3.142  0.00  0.00    +0.259 HD
ENDBRANCH  16  17
ENDBRANCH  15  16
ENDBRANCH  14  15
ENDBRANCH  11  14
ENDBRANCH   8  11
ENDBRANCH   5   7
ENDBRANCH   3   5
BRANCH   1  26
ATOM     26  CA  ILE A   2      38.075   0.123   0.931  0.00  0.00    +0.148 C 
BRANCH  26  28
ATOM     27  C   GLU A   1      38.823  -1.244  -0.900  0.00  0.00    +0.238 C 
ATOM     28  N   ILE A   2      38.060  -1.128   0.180  0.00  0.00    -0.297 N 
ATOM     29  H   ILE A   2      37.459  -1.919   0.487  0.00  0.00    +0.150 HD
ATOM     30  O   GLU A   1      39.560  -0.337  -1.265  0.00  0.00    -0.274 OA
BRANCH  27  31
ATOM     31  CA  GLU A   1      38.766  -2.554  -1.681  0.00  0.00    +0.145 C 
BRANCH  31  32
ATOM     32  N   GLU A   1      38.564  -3.727  -0.843  0.00  0.00    -0.238 NA
ATOM     33  H   GLU A   1      37.879  -4.446  -1.153  0.00  0.00    +0.142 HD
ENDBRANCH  31  32
BRANCH  31  34
ATOM     34  CB  GLU A   1      37.644  -2.469  -2.712  0.00  0.00    +0.038 C 
BRANCH  34  35
ATOM     35  CG  GLU A   1      38.085  -2.423  -4.173  0.00  0.00    +0.116 C 
BRANCH  35  36
ATOM     36  CD  GLU A   1      38.734  -1.101  -4.554  0.00  0.00    +0.365 C 
ATOM     37  OE2 GLU A   1      39.976  -0.973  -4.411  0.00  0.00    -0.246 OA
ATOM     38  OE1 GLU A   1      37.996  -0.185  -4.992  0.00  0.00    -0.246 OA
ENDBRANCH  35  36
ENDBRANCH  34  35
ENDBRANCH  31  34
ENDBRANCH  27  31
ENDBRANCH  26  28
BRANCH  26  39
ATOM     39  CB  ILE A   2      36.657   0.674   1.153  0.00  0.00    +0.027 C 
ATOM     40  CG2 ILE A   2      36.066   1.136  -0.163  0.00  0.00    +0.002 C 
BRANCH  39  41
ATOM     41  CG1 ILE A   2      35.787  -0.401   1.813  0.00  0.00    +0.002 C 
ATOM     42  CD1 ILE A   2      34.557   0.141   2.486  0.00  0.00    +0.000 C 
ENDBRANCH  39  41
ENDBRANCH  26  39
ENDBRANCH   1  26
TORSDOF 17
REMARK  Name = ../refined-set-2016/3ckp/3ckp_pocket.pdb
REMARK  249 active torsions:
REMARK  status: ('A' for Active; 'I' for Inactive)
REMARK    1  A    between atoms: _1  and  _3
REMARK    2  A    between atoms: _3  and  _4
REMARK    3  A    between atoms: _3  and  _6
REMARK    4  A    between atoms: _6  and  _7
REMARK    5  A    between atoms: _7  and  _8
REMARK    6  A    between atoms: _8  and  _9
REMARK    7  A    between atoms: _9  and  _10
REMARK    8  A    between atoms: _14  and  _16
REMARK    9  A    between atoms: _16  and  _17
REMARK   10  A    between atoms: _16  and  _19
REMARK   11  A    between atoms: _19  and  _20
REMARK   12  A    between atoms: _22  and  _24
REMARK   13  A    between atoms: _24  and  _25
REMARK   14  A    between atoms: _27  and  _29
REMARK   15  A    between atoms: _29  and  _30
REMARK   16  A    between atoms: _29  and  _32
REMARK   17  A    between atoms: _32  and  _33
REMARK   18  A    between atoms: _33  and  _34
REMARK   19  A    between atoms: _39  and  _41
REMARK   20  A    between atoms: _41  and  _42
REMARK   21  A    between atoms: _44  and  _46
REMARK   22  A    between atoms: _46  and  _47
REMARK   23  A    between atoms: _46  and  _49
REMARK   24  A    between atoms: _49  and  _50
REMARK   25  A    between atoms: _55  and  _56
REMARK   26  A    between atoms: _58  and  _60
REMARK   27  A    between atoms: _60  and  _61
REMARK   28  A    between atoms: _60  and  _63
REMARK   29  A    between atoms: _63  and  _64
REMARK   30  A    between atoms: _69  and  _70
REMARK   31  A    between atoms: _72  and  _74
REMARK   32  A    between atoms: _74  and  _75
REMARK   33  A    between atoms: _74  and  _77
REMARK   34  A    between atoms: _77  and  _78
REMARK   35  A    between atoms: _81  and  _83
REMARK   36  A    between atoms: _83  and  _84
REMARK   37  A    between atoms: _83  and  _86
REMARK   38  A    between atoms: _89  and  _91
REMARK   39  A    between atoms: _91  and  _92
REMARK   40  A    between atoms: _91  and  _94
REMARK   41  A    between atoms: _94  and  _95
REMARK   42  A    between atoms: _98  and  _100
REMARK   43  A    between atoms: _100  and  _101
REMARK   44  A    between atoms: _100  and  _103
REMARK   45  A    between atoms: _103  and  _104
REMARK   46  A    between atoms: _107  and  _109
REMARK   47  A    between atoms: _109  and  _110
REMARK   48  A    between atoms: _112  and  _114
REMARK   49  A    between atoms: _114  and  _115
REMARK   50  A    between atoms: _114  and  _117
REMARK   51  A    between atoms: _117  and  _118
REMARK   52  A    between atoms: _120  and  _122
REMARK   53  A    between atoms: _122  and  _123
REMARK   54  A    between atoms: _122  and  _125
REMARK   55  A    between atoms: _125  and  _126
REMARK   56  A    between atoms: _128  and  _130
REMARK   57  A    between atoms: _130  and  _131
REMARK   58  A    between atoms: _130  and  _133
REMARK   59  A    between atoms: _133  and  _134
REMARK   60  A    between atoms: _139  and  _141
REMARK   61  A    between atoms: _141  and  _142
REMARK   62  A    between atoms: _141  and  _144
REMARK   63  A    between atoms: _144  and  _145
REMARK   64  A    between atoms: _150  and  _151
REMARK   65  A    between atoms: _153  and  _155
REMARK   66  A    between atoms: _155  and  _156
REMARK   67  A    between atoms: _155  and  _158
REMARK   68  A    between atoms: _162  and  _163
REMARK   69  A    between atoms: _168  and  _170
REMARK   70  A    between atoms: _170  and  _171
REMARK   71  A    between atoms: _170  and  _173
REMARK   72  A    between atoms: _173  and  _174
REMARK   73  A    between atoms: _179  and  _180
REMARK   74  A    between atoms: _182  and  _184
REMARK   75  A    between atoms: _184  and  _185
REMARK   76  A    between atoms: _184  and  _187
REMARK   77  A    between atoms: _187  and  _188
REMARK   78  A    between atoms: _191  and  _193
REMARK   79  A    between atoms: _193  and  _194
REMARK   80  A    between atoms: _193  and  _196
REMARK   81  A    between atoms: _196  and  _197
REMARK   82  A    between atoms: _197  and  _198
REMARK   83  A    between atoms: _203  and  _205
REMARK   84  A    between atoms: _205  and  _206
REMARK   85  A    between atoms: _208  and  _210
REMARK   86  A    between atoms: _210  and  _211
REMARK   87  A    between atoms: _210  and  _213
REMARK   88  A    between atoms: _213  and  _214
REMARK   89  A    between atoms: _214  and  _215
REMARK   90  A    between atoms: _215  and  _216
REMARK   91  A    between atoms: _216  and  _217
REMARK   92  A    between atoms: _221  and  _223
REMARK   93  A    between atoms: _223  and  _224
REMARK   94  A    between atoms: _223  and  _226
REMARK   95  A    between atoms: _226  and  _227
REMARK   96  A    between atoms: _237  and  _239
REMARK   97  A    between atoms: _239  and  _240
REMARK   98  A    between atoms: _239  and  _242
REMARK   99  A    between atoms: _242  and  _243
REMARK  100  A    between atoms: _246  and  _248
REMARK  101  A    between atoms: _248  and  _249
REMARK  102  A    between atoms: _248  and  _251
REMARK  103  A    between atoms: _251  and  _252
REMARK  104  A    between atoms: _252  and  _253
REMARK  105  A    between atoms: _253  and  _254
REMARK  106  A    between atoms: _254  and  _255
REMARK  107  A    between atoms: _259  and  _261
REMARK  108  A    between atoms: _261  and  _262
REMARK  109  A    between atoms: _261  and  _264
REMARK  110  A    between atoms: _264  and  _265
REMARK  111  A    between atoms: _271  and  _273
REMARK  112  A    between atoms: _273  and  _274
REMARK  113  A    between atoms: _273  and  _276
REMARK  114  A    between atoms: _276  and  _277
REMARK  115  A    between atoms: _283  and  _285
REMARK  116  A    between atoms: _285  and  _286
REMARK  117  A    between atoms: _285  and  _288
REMARK  118  A    between atoms: _288  and  _289
REMARK  119  A    between atoms: _292  and  _294
REMARK  120  A    between atoms: _294  and  _295
REMARK  121  A    between atoms: _294  and  _297
REMARK  122  A    between atoms: _297  and  _298
REMARK  123  A    between atoms: _300  and  _302
REMARK  124  A    between atoms: _302  and  _303
REMARK  125  A    between atoms: _302  and  _305
REMARK  126  A    between atoms: _305  and  _306
REMARK  127  A    between atoms: _316  and  _318
REMARK  128  A    between atoms: _318  and  _319
REMARK  129  A    between atoms: _321  and  _323
REMARK  130  A    between atoms: _323  and  _324
REMARK  131  A    between atoms: _323  and  _326
REMARK  132  A    between atoms: _326  and  _327
REMARK  133  A    between atoms: _330  and  _332
REMARK  134  A    between atoms: _332  and  _333
REMARK  135  A    between atoms: _335  and  _337
REMARK  136  A    between atoms: _337  and  _338
REMARK  137  A    between atoms: _337  and  _340
REMARK  138  A    between atoms: _340  and  _341
REMARK  139  A    between atoms: _344  and  _346
REMARK  140  A    between atoms: _346  and  _347
REMARK  141  A    between atoms: _350  and  _352
REMARK  142  A    between atoms: _352  and  _353
REMARK  143  A    between atoms: _352  and  _355
REMARK  144  A    between atoms: _355  and  _356
REMARK  145  A    between atoms: _361  and  _362
REMARK  146  A    between atoms: _364  and  _366
REMARK  147  A    between atoms: _366  and  _367
REMARK  148  A    between atoms: _366  and  _369
REMARK  149  A    between atoms: _369  and  _370
REMARK  150  A    between atoms: _370  and  _371
REMARK  151  A    between atoms: _374  and  _376
REMARK  152  A    between atoms: _376  and  _377
REMARK  153  A    between atoms: _376  and  _379
REMARK  154  A    between atoms: _379  and  _380
REMARK  155  A    between atoms: _383  and  _385
REMARK  156  A    between atoms: _385  and  _386
REMARK  157  A    between atoms: _389  and  _391
REMARK  158  A    between atoms: _391  and  _392
REMARK  159  A    between atoms: _391  and  _394
REMARK  160  A    between atoms: _394  and  _395
REMARK  161  A    between atoms: _395  and  _396
REMARK  162  A    between atoms: _396  and  _397
REMARK  163  A    between atoms: _406  and  _408
REMARK  164  A    between atoms: _408  and  _409
REMARK  165  A    between atoms: _408  and  _411
REMARK  166  A    between atoms: _411  and  _412
REMARK  167  A    between atoms: _415  and  _417
REMARK  168  A    between atoms: _417  and  _418
REMARK  169  A    between atoms: _417  and  _420
REMARK  170  A    between atoms: _420  and  _421
REMARK  171  A    between atoms: _431  and  _433
REMARK  172  A    between atoms: _433  and  _434
REMARK  173  A    between atoms: _433  and  _436
REMARK  174  A    between atoms: _436  and  _437
REMARK  175  A    between atoms: _442  and  _443
REMARK  176  A    between atoms: _445  and  _447
REMARK  177  A    between atoms: _447  and  _448
REMARK  178  A    between atoms: _447  and  _450
REMARK  179  A    between atoms: _450  and  _451
REMARK  180  A    between atoms: _451  and  _452
REMARK  181  A    between atoms: _452  and  _453
REMARK  182  A    between atoms: _453  and  _454
REMARK  183  A    between atoms: _458  and  _460
REMARK  184  A    between atoms: _460  and  _461
REMARK  185  A    between atoms: _460  and  _463
REMARK  186  A    between atoms: _463  and  _464
REMARK  187  A    between atoms: _467  and  _469
REMARK  188  A    between atoms: _469  and  _470
REMARK  189  A    between atoms: _469  and  _472
REMARK  190  A    between atoms: _475  and  _477
REMARK  191  A    between atoms: _477  and  _478
REMARK  192  A    between atoms: _477  and  _480
REMARK  193  A    between atoms: _480  and  _481
REMARK  194  A    between atoms: _484  and  _486
REMARK  195  A    between atoms: _486  and  _487
REMARK  196  A    between atoms: _486  and  _489
REMARK  197  A    between atoms: _489  and  _490
REMARK  198  A    between atoms: _492  and  _494
REMARK  199  A    between atoms: _494  and  _495
REMARK  200  A    between atoms: _497  and  _499
REMARK  201  A    between atoms: _499  and  _500
REMARK  202  A    between atoms: _499  and  _502
REMARK  203  A    between atoms: _502  and  _503
REMARK  204  A    between atoms: _506  and  _508
REMARK  205  A    between atoms: _508  and  _509
REMARK  206  A    between atoms: _508  and  _511
REMARK  207  A    between atoms: _511  and  _512
REMARK  208  A    between atoms: _515  and  _517
REMARK  209  A    between atoms: _517  and  _518
REMARK  210  A    between atoms: _517  and  _520
REMARK  211  A    between atoms: _520  and  _521
REMARK  212  A    between atoms: _526  and  _528
REMARK  213  A    between atoms: _528  and  _529
REMARK  214  A    between atoms: _528  and  _531
REMARK  215  A    between atoms: _531  and  _532
REMARK  216  A    between atoms: _535  and  _537
REMARK  217  A    between atoms: _537  and  _538
REMARK  218  A    between atoms: _537  and  _540
REMARK  219  A    between atoms: _540  and  _541
REMARK  220  A    between atoms: _541  and  _542
REMARK  221  A    between atoms: _542  and  _543
REMARK  222  A    between atoms: _552  and  _554
REMARK  223  A    between atoms: _554  and  _555
REMARK  224  A    between atoms: _554  and  _557
REMARK  225  A    between atoms: _557  and  _558
REMARK  226  A    between atoms: _558  and  _559
REMARK  227  A    between atoms: _559  and  _560
REMARK  228  A    between atoms: _569  and  _571
REMARK  229  A    between atoms: _571  and  _572
REMARK  230  A    between atoms: _571  and  _574
REMARK  231  A    between atoms: _574  and  _575
REMARK  232  A    between atoms: _575  and  _576
REMARK  233  A    between atoms: _576  and  _577
REMARK  234  A    between atoms: _577  and  _578
REMARK  235  A    between atoms: _582  and  _584
REMARK  236  A    between atoms: _584  and  _585
REMARK  237  A    between atoms: _584  and  _587
REMARK  238  A    between atoms: _587  and  _588
REMARK  239  A    between atoms: _590  and  _592
REMARK  240  A    between atoms: _592  and  _593
REMARK  241  A    between atoms: _592  and  _595
REMARK  242  A    between atoms: _595  and  _596
REMARK  243  A    between atoms: _599  and  _601
REMARK  244  A    between atoms: _601  and  _602
REMARK  245  A    between atoms: _601  and  _604
REMARK  246  A    between atoms: _607  and  _609
REMARK  247  A    between atoms: _609  and  _610
REMARK  248  A    between atoms: _612  and  _614
REMARK  249  A    between atoms: _614  and  _615
REMARK                            x       y       z     vdW  Elec       q    Type
REMARK                         _______ _______ _______ _____ _____    ______ ____
ROOT
ATOM      1  CA  LEU A   1      17.840  -4.210  12.753  0.00  0.00    +0.133 C 
ENDROOT
BRANCH   1   2
ATOM      2  N   LEU A   1      17.667  -5.232  11.727  0.00  0.00    -0.239 NA
ATOM      3  H   LEU A   1      17.461  -4.955  10.746  0.00  0.00    +0.142 HD
ENDBRANCH   1   2
BRANCH   1   4
ATOM      4  C   LEU A   1      16.456  -3.745  13.219  0.00  0.00    +0.224 C 
ATOM      5  O   LEU A   1      15.618  -3.362  12.413  0.00  0.00    -0.287 OA
ENDBRANCH   1   4
BRANCH   1   6
ATOM      6  CB  LEU A   1      18.669  -3.048  12.192  0.00  0.00    +0.025 C 
BRANCH   6   7
ATOM      7  CG  LEU A   1      20.049  -3.525  11.717  0.00  0.00    +0.002 C 
ATOM      8  CD2 LEU A   1      20.851  -4.025  12.924  0.00  0.00    +0.000 C 
ATOM      9  CD1 LEU A   1      20.807  -2.404  10.985  0.00  0.00    +0.000 C 
ENDBRANCH   6   7
ENDBRANCH   1   6
TORSDOF 4
REMARK  Name = ../refined-set-2016/3ckp/3ckp_pocket.pdb
REMARK  249 active torsions:
REMARK  status: ('A' for Active; 'I' for Inactive)
REMARK    1  A    between atoms: _1  and  _3
REMARK    2  A    between atoms: _3  and  _4
REMARK    3  A    between atoms: _3  and  _6
REMARK    4  A    between atoms: _6  and  _7
REMARK    5  A    between atoms: _7  and  _8
REMARK    6  A    between atoms: _8  and  _9
REMARK    7  A    between atoms: _9  and  _10
REMARK    8  A    between atoms: _14  and  _16
REMARK    9  A    between atoms: _16  and  _17
REMARK   10  A    between atoms: _16  and  _19
REMARK   11  A    between atoms: _19  and  _20
REMARK   12  A    between atoms: _22  and  _24
REMARK   13  A    between atoms: _24  and  _25
REMARK   14  A    between atoms: _27  and  _29
REMARK   15  A    between atoms: _29  and  _30
REMARK   16  A    between atoms: _29  and  _32
REMARK   17  A    between atoms: _32  and  _33
REMARK   18  A    between atoms: _33  and  _34
REMARK   19  A    between atoms: _39  and  _41
REMARK   20  A    between atoms: _41  and  _42
REMARK   21  A    between atoms: _44  and  _46
REMARK   22  A    between atoms: _46  and  _47
REMARK   23  A    between atoms: _46  and  _49
REMARK   24  A    between atoms: _49  and  _50
REMARK   25  A    between atoms: _55  and  _56
REMARK   26  A    between atoms: _58  and  _60
REMARK   27  A    between atoms: _60  and  _61
REMARK   28  A    between atoms: _60  and  _63
REMARK   29  A    between atoms: _63  and  _64
REMARK   30  A    between atoms: _69  and  _70
REMARK   31  A    between atoms: _72  and  _74
REMARK   32  A    between atoms: _74  and  _75
REMARK   33  A    between atoms: _74  and  _77
REMARK   34  A    between atoms: _77  and  _78
REMARK   35  A    between atoms: _81  and  _83
REMARK   36  A    between atoms: _83  and  _84
REMARK   37  A    between atoms: _83  and  _86
REMARK   38  A    between atoms: _89  and  _91
REMARK   39  A    between atoms: _91  and  _92
REMARK   40  A    between atoms: _91  and  _94
REMARK   41  A    between atoms: _94  and  _95
REMARK   42  A    between atoms: _98  and  _100
REMARK   43  A    between atoms: _100  and  _101
REMARK   44  A    between atoms: _100  and  _103
REMARK   45  A    between atoms: _103  and  _104
REMARK   46  A    between atoms: _107  and  _109
REMARK   47  A    between atoms: _109  and  _110
REMARK   48  A    between atoms: _112  and  _114
REMARK   49  A    between atoms: _114  and  _115
REMARK   50  A    between atoms: _114  and  _117
REMARK   51  A    between atoms: _117  and  _118
REMARK   52  A    between atoms: _120  and  _122
REMARK   53  A    between atoms: _122  and  _123
REMARK   54  A    between atoms: _122  and  _125
REMARK   55  A    between atoms: _125  and  _126
REMARK   56  A    between atoms: _128  and  _130
REMARK   57  A    between atoms: _130  and  _131
REMARK   58  A    between atoms: _130  and  _133
REMARK   59  A    between atoms: _133  and  _134
REMARK   60  A    between atoms: _139  and  _141
REMARK   61  A    between atoms: _141  and  _142
REMARK   62  A    between atoms: _141  and  _144
REMARK   63  A    between atoms: _144  and  _145
REMARK   64  A    between atoms: _150  and  _151
REMARK   65  A    between atoms: _153  and  _155
REMARK   66  A    between atoms: _155  and  _156
REMARK   67  A    between atoms: _155  and  _158
REMARK   68  A    between atoms: _162  and  _163
REMARK   69  A    between atoms: _168  and  _170
REMARK   70  A    between atoms: _170  and  _171
REMARK   71  A    between atoms: _170  and  _173
REMARK   72  A    between atoms: _173  and  _174
REMARK   73  A    between atoms: _179  and  _180
REMARK   74  A    between atoms: _182  and  _184
REMARK   75  A    between atoms: _184  and  _185
REMARK   76  A    between atoms: _184  and  _187
REMARK   77  A    between atoms: _187  and  _188
REMARK   78  A    between atoms: _191  and  _193
REMARK   79  A    between atoms: _193  and  _194
REMARK   80  A    between atoms: _193  and  _196
REMARK   81  A    between atoms: _196  and  _197
REMARK   82  A    between atoms: _197  and  _198
REMARK   83  A    between atoms: _203  and  _205
REMARK   84  A    between atoms: _205  and  _206
REMARK   85  A    between atoms: _208  and  _210
REMARK   86  A    between atoms: _210  and  _211
REMARK   87  A    between atoms: _210  and  _213
REMARK   88  A    between atoms: _213  and  _214
REMARK   89  A    between atoms: _214  and  _215
REMARK   90  A    between atoms: _215  and  _216
REMARK   91  A    between atoms: _216  and  _217
REMARK   92  A    between atoms: _221  and  _223
REMARK   93  A    between atoms: _223  and  _224
REMARK   94  A    between atoms: _223  and  _226
REMARK   95  A    between atoms: _226  and  _227
REMARK   96  A    between atoms: _237  and  _239
REMARK   97  A    between atoms: _239  and  _240
REMARK   98  A    between atoms: _239  and  _242
REMARK   99  A    between atoms: _242  and  _243
REMARK  100  A    between atoms: _246  and  _248
REMARK  101  A    between atoms: _248  and  _249
REMARK  102  A    between atoms: _248  and  _251
REMARK  103  A    between atoms: _251  and  _252
REMARK  104  A    between atoms: _252  and  _253
REMARK  105  A    between atoms: _253  and  _254
REMARK  106  A    between atoms: _254  and  _255
REMARK  107  A    between atoms: _259  and  _261
REMARK  108  A    between atoms: _261  and  _262
REMARK  109  A    between atoms: _261  and  _264
REMARK  110  A    between atoms: _264  and  _265
REMARK  111  A    between atoms: _271  and  _273
REMARK  112  A    between atoms: _273  and  _274
REMARK  113  A    between atoms: _273  and  _276
REMARK  114  A    between atoms: _276  and  _277
REMARK  115  A    between atoms: _283  and  _285
REMARK  116  A    between atoms: _285  and  _286
REMARK  117  A    between atoms: _285  and  _288
REMARK  118  A    between atoms: _288  and  _289
REMARK  119  A    between atoms: _292  and  _294
REMARK  120  A    between atoms: _294  and  _295
REMARK  121  A    between atoms: _294  and  _297
REMARK  122  A    between atoms: _297  and  _298
REMARK  123  A    between atoms: _300  and  _302
REMARK  124  A    between atoms: _302  and  _303
REMARK  125  A    between atoms: _302  and  _305
REMARK  126  A    between atoms: _305  and  _306
REMARK  127  A    between atoms: _316  and  _318
REMARK  128  A    between atoms: _318  and  _319
REMARK  129  A    between atoms: _321  and  _323
REMARK  130  A    between atoms: _323  and  _324
REMARK  131  A    between atoms: _323  and  _326
REMARK  132  A    between atoms: _326  and  _327
REMARK  133  A    between atoms: _330  and  _332
REMARK  134  A    between atoms: _332  and  _333
REMARK  135  A    between atoms: _335  and  _337
REMARK  136  A    between atoms: _337  and  _338
REMARK  137  A    between atoms: _337  and  _340
REMARK  138  A    between atoms: _340  and  _341
REMARK  139  A    between atoms: _344  and  _346
REMARK  140  A    between atoms: _346  and  _347
REMARK  141  A    between atoms: _350  and  _352
REMARK  142  A    between atoms: _352  and  _353
REMARK  143  A    between atoms: _352  and  _355
REMARK  144  A    between atoms: _355  and  _356
REMARK  145  A    between atoms: _361  and  _362
REMARK  146  A    between atoms: _364  and  _366
REMARK  147  A    between atoms: _366  and  _367
REMARK  148  A    between atoms: _366  and  _369
REMARK  149  A    between atoms: _369  and  _370
REMARK  150  A    between atoms: _370  and  _371
REMARK  151  A    between atoms: _374  and  _376
REMARK  152  A    between atoms: _376  and  _377
REMARK  153  A    between atoms: _376  and  _379
REMARK  154  A    between atoms: _379  and  _380
REMARK  155  A    between atoms: _383  and  _385
REMARK  156  A    between atoms: _385  and  _386
REMARK  157  A    between atoms: _389  and  _391
REMARK  158  A    between atoms: _391  and  _392
REMARK  159  A    between atoms: _391  and  _394
REMARK  160  A    between atoms: _394  and  _395
REMARK  161  A    between atoms: _395  and  _396
REMARK  162  A    between atoms: _396  and  _397
REMARK  163  A    between atoms: _406  and  _408
REMARK  164  A    between atoms: _408  and  _409
REMARK  165  A    between atoms: _408  and  _411
REMARK  166  A    between atoms: _411  and  _412
REMARK  167  A    between atoms: _415  and  _417
REMARK  168  A    between atoms: _417  and  _418
REMARK  169  A    between atoms: _417  and  _420
REMARK  170  A    between atoms: _420  and  _421
REMARK  171  A    between atoms: _431  and  _433
REMARK  172  A    between atoms: _433  and  _434
REMARK  173  A    between atoms: _433  and  _436
REMARK  174  A    between atoms: _436  and  _437
REMARK  175  A    between atoms: _442  and  _443
REMARK  176  A    between atoms: _445  and  _447
REMARK  177  A    between atoms: _447  and  _448
REMARK  178  A    between atoms: _447  and  _450
REMARK  179  A    between atoms: _450  and  _451
REMARK  180  A    between atoms: _451  and  _452
REMARK  181  A    between atoms: _452  and  _453
REMARK  182  A    between atoms: _453  and  _454
REMARK  183  A    between atoms: _458  and  _460
REMARK  184  A    between atoms: _460  and  _461
REMARK  185  A    between atoms: _460  and  _463
REMARK  186  A    between atoms: _463  and  _464
REMARK  187  A    between atoms: _467  and  _469
REMARK  188  A    between atoms: _469  and  _470
REMARK  189  A    between atoms: _469  and  _472
REMARK  190  A    between atoms: _475  and  _477
REMARK  191  A    between atoms: _477  and  _478
REMARK  192  A    between atoms: _477  and  _480
REMARK  193  A    between atoms: _480  and  _481
REMARK  194  A    between atoms: _484  and  _486
REMARK  195  A    between atoms: _486  and  _487
REMARK  196  A    between atoms: _486  and  _489
REMARK  197  A    between atoms: _489  and  _490
REMARK  198  A    between atoms: _492  and  _494
REMARK  199  A    between atoms: _494  and  _495
REMARK  200  A    between atoms: _497  and  _499
REMARK  201  A    between atoms: _499  and  _500
REMARK  202  A    between atoms: _499  and  _502
REMARK  203  A    between atoms: _502  and  _503
REMARK  204  A    between atoms: _506  and  _508
REMARK  205  A    between atoms: _508  and  _509
REMARK  206  A    between atoms: _508  and  _511
REMARK  207  A    between atoms: _511  and  _512
REMARK  208  A    between atoms: _515  and  _517
REMARK  209  A    between atoms: _517  and  _518
REMARK  210  A    between atoms: _517  and  _520
REMARK  211  A    between atoms: _520  and  _521
REMARK  212  A    between atoms: _526  and  _528
REMARK  213  A    between atoms: _528  and  _529
REMARK  214  A    between atoms: _528  and  _531
REMARK  215  A    between atoms: _531  and  _532
REMARK  216  A    between atoms: _535  and  _537
REMARK  217  A    between atoms: _537  and  _538
REMARK  218  A    between atoms: _537  and  _540
REMARK  219  A    between atoms: _540  and  _541
REMARK  220  A    between atoms: _541  and  _542
REMARK  221  A    between atoms: _542  and  _543
REMARK  222  A    between atoms: _552  and  _554
REMARK  223  A    between atoms: _554  and  _555
REMARK  224  A    between atoms: _554  and  _557
REMARK  225  A    between atoms: _557  and  _558
REMARK  226  A    between atoms: _558  and  _559
REMARK  227  A    between atoms: _559  and  _560
REMARK  228  A    between atoms: _569  and  _571
REMARK  229  A    between atoms: _571  and  _572
REMARK  230  A    between atoms: _571  and  _574
REMARK  231  A    between atoms: _574  and  _575
REMARK  232  A    between atoms: _575  and  _576
REMARK  233  A    between atoms: _576  and  _577
REMARK  234  A    between atoms: _577  and  _578
REMARK  235  A    between atoms: _582  and  _584
REMARK  236  A    between atoms: _584  and  _585
REMARK  237  A    between atoms: _584  and  _587
REMARK  238  A    between atoms: _587  and  _588
REMARK  239  A    between atoms: _590  and  _592
REMARK  240  A    between atoms: _592  and  _593
REMARK  241  A    between atoms: _592  and  _595
REMARK  242  A    between atoms: _595  and  _596
REMARK  243  A    between atoms: _599  and  _601
REMARK  244  A    between atoms: _601  and  _602
REMARK  245  A    between atoms: _601  and  _604
REMARK  246  A    between atoms: _607  and  _609
REMARK  247  A    between atoms: _609  and  _610
REMARK  248  A    between atoms: _612  and  _614
REMARK  249  A    between atoms: _614  and  _615
REMARK                            x       y       z     vdW  Elec       q    Type
REMARK                         _______ _______ _______ _____ _____    ______ ____
ROOT
ATOM      1  C   TRP A   1      33.019  -1.781  -1.272  0.00  0.00    +0.239 C 
ATOM      2  O   TRP A   1      33.248  -2.256  -0.163  0.00  0.00    -0.274 OA
ATOM      3  N   TYR A   2      32.019  -0.940  -1.488  0.00  0.00    -0.298 N 
ATOM      4  H   TYR A   2      31.923  -0.497  -2.424  0.00  0.00    +0.150 HD
ENDROOT
BRANCH   1   5
ATOM      5  CA  TRP A   1      33.893  -2.163  -2.471  0.00  0.00    +0.149 C 
BRANCH   5   6
ATOM      6  N   TRP A   1      33.037  -3.066  -3.228  0.00  0.00    -0.238 NA
ATOM      7  H   TRP A   1      32.010  -2.901  -3.219  0.00  0.00    +0.142 HD
ENDBRANCH   5   6
BRANCH   5   8
ATOM      8  CB  TRP A   1      34.364  -0.966  -3.346  0.00  0.00    +0.054 C 
BRANCH   8   9
ATOM      9  CG  TRP A   1      33.317  -0.038  -3.979  0.00  0.00    -0.002 A 
ATOM     10  CD2 TRP A   1      33.410   1.393  -4.103  0.00  0.00    +0.013 A 
ATOM     11  CE3 TRP A   1      34.365   2.346  -3.702  0.00  0.00    +0.001 A 
ATOM     12  CZ3 TRP A   1      34.136   3.693  -3.993  0.00  0.00    +0.000 A 
ATOM     13  CH2 TRP A   1      32.967   4.100  -4.675  0.00  0.00    +0.001 A 
ATOM     14  CZ2 TRP A   1      32.019   3.187  -5.078  0.00  0.00    +0.017 A 
ATOM     15  CE2 TRP A   1      32.252   1.833  -4.787  0.00  0.00    +0.056 A 
ATOM     16  NE1 TRP A   1      31.494   0.726  -5.068  0.00  0.00    -0.352 N 
ATOM     17  HE1 TRP A   1      30.582   0.729  -5.567  0.00  0.00    +0.166 HD
ATOM     18  CD1 TRP A   1      32.137  -0.391  -4.582  0.00  0.00    +0.068 A 
ENDBRANCH   8   9
ENDBRANCH   5   8
ENDBRANCH   1   5
BRANCH   3  19
ATOM     19  CA  TYR A   2      31.048  -0.618  -0.446  0.00  0.00    +0.141 C 
BRANCH  19  20
ATOM     20  C   TYR A   2      29.983  -1.587  -0.925  0.00  0.00    +0.227 C 
ATOM     21  O   TYR A   2      30.218  -2.305  -1.888  0.00  0.00    -0.286 OA
ENDBRANCH  19  20
BRANCH  19  22
ATOM     22  CB  TYR A   2      30.487   0.794  -0.601  0.00  0.00    +0.054 C 
BRANCH  22  23
ATOM     23  CG  TYR A   2      31.345   1.898  -0.068  0.00  0.00    -0.020 A 
ATOM     24  CD2 TYR A   2      31.342   2.218   1.296  0.00  0.00    -0.001 A 
ATOM     25  CE2 TYR A   2      32.133   3.264   1.797  0.00  0.00    +0.036 A 
ATOM     26  CZ  TYR A   2      32.931   3.990   0.917  0.00  0.00    +0.134 A 
ATOM     27  CE1 TYR A   2      32.948   3.682  -0.441  0.00  0.00    +0.036 A 
ATOM     28  CD1 TYR A   2      32.157   2.642  -0.924  0.00  0.00    -0.001 A 
BRANCH  26  29
ATOM     29  OH  TYR A   2      33.704   5.031   1.373  0.00  0.00    -0.506 OA
ATOM     30  HH  TYR A   2      33.426   5.868   0.924  0.00  0.00    +0.292 HD
ENDBRANCH  26  29
ENDBRANCH  22  23
ENDBRANCH  19  22
ENDBRANCH   3  19
TORSDOF 9
REMARK  Name = ../refined-set-2016/3ckp/3ckp_pocket.pdb
REMARK  249 active torsions:
REMARK  status: ('A' for Active; 'I' for Inactive)
REMARK    1  A    between atoms: _1  and  _3
REMARK    2  A    between atoms: _3  and  _4
REMARK    3  A    between atoms: _3  and  _6
REMARK    4  A    between atoms: _6  and  _7
REMARK    5  A    between atoms: _7  and  _8
REMARK    6  A    between atoms: _8  and  _9
REMARK    7  A    between atoms: _9  and  _10
REMARK    8  A    between atoms: _14  and  _16
REMARK    9  A    between atoms: _16  and  _17
REMARK   10  A    between atoms: _16  and  _19
REMARK   11  A    between atoms: _19  and  _20
REMARK   12  A    between atoms: _22  and  _24
REMARK   13  A    between atoms: _24  and  _25
REMARK   14  A    between atoms: _27  and  _29
REMARK   15  A    between atoms: _29  and  _30
REMARK   16  A    between atoms: _29  and  _32
REMARK   17  A    between atoms: _32  and  _33
REMARK   18  A    between atoms: _33  and  _34
REMARK   19  A    between atoms: _39  and  _41
REMARK   20  A    between atoms: _41  and  _42
REMARK   21  A    between atoms: _44  and  _46
REMARK   22  A    between atoms: _46  and  _47
REMARK   23  A    between atoms: _46  and  _49
REMARK   24  A    between atoms: _49  and  _50
REMARK   25  A    between atoms: _55  and  _56
REMARK   26  A    between atoms: _58  and  _60
REMARK   27  A    between atoms: _60  and  _61
REMARK   28  A    between atoms: _60  and  _63
REMARK   29  A    between atoms: _63  and  _64
REMARK   30  A    between atoms: _69  and  _70
REMARK   31  A    between atoms: _72  and  _74
REMARK   32  A    between atoms: _74  and  _75
REMARK   33  A    between atoms: _74  and  _77
REMARK   34  A    between atoms: _77  and  _78
REMARK   35  A    between atoms: _81  and  _83
REMARK   36  A    between atoms: _83  and  _84
REMARK   37  A    between atoms: _83  and  _86
REMARK   38  A    between atoms: _89  and  _91
REMARK   39  A    between atoms: _91  and  _92
REMARK   40  A    between atoms: _91  and  _94
REMARK   41  A    between atoms: _94  and  _95
REMARK   42  A    between atoms: _98  and  _100
REMARK   43  A    between atoms: _100  and  _101
REMARK   44  A    between atoms: _100  and  _103
REMARK   45  A    between atoms: _103  and  _104
REMARK   46  A    between atoms: _107  and  _109
REMARK   47  A    between atoms: _109  and  _110
REMARK   48  A    between atoms: _112  and  _114
REMARK   49  A    between atoms: _114  and  _115
REMARK   50  A    between atoms: _114  and  _117
REMARK   51  A    between atoms: _117  and  _118
REMARK   52  A    between atoms: _120  and  _122
REMARK   53  A    between atoms: _122  and  _123
REMARK   54  A    between atoms: _122  and  _125
REMARK   55  A    between atoms: _125  and  _126
REMARK   56  A    between atoms: _128  and  _130
REMARK   57  A    between atoms: _130  and  _131
REMARK   58  A    between atoms: _130  and  _133
REMARK   59  A    between atoms: _133  and  _134
REMARK   60  A    between atoms: _139  and  _141
REMARK   61  A    between atoms: _141  and  _142
REMARK   62  A    between atoms: _141  and  _144
REMARK   63  A    between atoms: _144  and  _145
REMARK   64  A    between atoms: _150  and  _151
REMARK   65  A    between atoms: _153  and  _155
REMARK   66  A    between atoms: _155  and  _156
REMARK   67  A    between atoms: _155  and  _158
REMARK   68  A    between atoms: _162  and  _163
REMARK   69  A    between atoms: _168  and  _170
REMARK   70  A    between atoms: _170  and  _171
REMARK   71  A    between atoms: _170  and  _173
REMARK   72  A    between atoms: _173  and  _174
REMARK   73  A    between atoms: _179  and  _180
REMARK   74  A    between atoms: _182  and  _184
REMARK   75  A    between atoms: _184  and  _185
REMARK   76  A    between atoms: _184  and  _187
REMARK   77  A    between atoms: _187  and  _188
REMARK   78  A    between atoms: _191  and  _193
REMARK   79  A    between atoms: _193  and  _194
REMARK   80  A    between atoms: _193  and  _196
REMARK   81  A    between atoms: _196  and  _197
REMARK   82  A    between atoms: _197  and  _198
REMARK   83  A    between atoms: _203  and  _205
REMARK   84  A    between atoms: _205  and  _206
REMARK   85  A    between atoms: _208  and  _210
REMARK   86  A    between atoms: _210  and  _211
REMARK   87  A    between atoms: _210  and  _213
REMARK   88  A    between atoms: _213  and  _214
REMARK   89  A    between atoms: _214  and  _215
REMARK   90  A    between atoms: _215  and  _216
REMARK   91  A    between atoms: _216  and  _217
REMARK   92  A    between atoms: _221  and  _223
REMARK   93  A    between atoms: _223  and  _224
REMARK   94  A    between atoms: _223  and  _226
REMARK   95  A    between atoms: _226  and  _227
REMARK   96  A    between atoms: _237  and  _239
REMARK   97  A    between atoms: _239  and  _240
REMARK   98  A    between atoms: _239  and  _242
REMARK   99  A    between atoms: _242  and  _243
REMARK  100  A    between atoms: _246  and  _248
REMARK  101  A    between atoms: _248  and  _249
REMARK  102  A    between atoms: _248  and  _251
REMARK  103  A    between atoms: _251  and  _252
REMARK  104  A    between atoms: _252  and  _253
REMARK  105  A    between atoms: _253  and  _254
REMARK  106  A    between atoms: _254  and  _255
REMARK  107  A    between atoms: _259  and  _261
REMARK  108  A    between atoms: _261  and  _262
REMARK  109  A    between atoms: _261  and  _264
REMARK  110  A    between atoms: _264  and  _265
REMARK  111  A    between atoms: _271  and  _273
REMARK  112  A    between atoms: _273  and  _274
REMARK  113  A    between atoms: _273  and  _276
REMARK  114  A    between atoms: _276  and  _277
REMARK  115  A    between atoms: _283  and  _285
REMARK  116  A    between atoms: _285  and  _286
REMARK  117  A    between atoms: _285  and  _288
REMARK  118  A    between atoms: _288  and  _289
REMARK  119  A    between atoms: _292  and  _294
REMARK  120  A    between atoms: _294  and  _295
REMARK  121  A    between atoms: _294  and  _297
REMARK  122  A    between atoms: _297  and  _298
REMARK  123  A    between atoms: _300  and  _302
REMARK  124  A    between atoms: _302  and  _303
REMARK  125  A    between atoms: _302  and  _305
REMARK  126  A    between atoms: _305  and  _306
REMARK  127  A    between atoms: _316  and  _318
REMARK  128  A    between atoms: _318  and  _319
REMARK  129  A    between atoms: _321  and  _323
REMARK  130  A    between atoms: _323  and  _324
REMARK  131  A    between atoms: _323  and  _326
REMARK  132  A    between atoms: _326  and  _327
REMARK  133  A    between atoms: _330  and  _332
REMARK  134  A    between atoms: _332  and  _333
REMARK  135  A    between atoms: _335  and  _337
REMARK  136  A    between atoms: _337  and  _338
REMARK  137  A    between atoms: _337  and  _340
REMARK  138  A    between atoms: _340  and  _341
REMARK  139  A    between atoms: _344  and  _346
REMARK  140  A    between atoms: _346  and  _347
REMARK  141  A    between atoms: _350  and  _352
REMARK  142  A    between atoms: _352  and  _353
REMARK  143  A    between atoms: _352  and  _355
REMARK  144  A    between atoms: _355  and  _356
REMARK  145  A    between atoms: _361  and  _362
REMARK  146  A    between atoms: _364  and  _366
REMARK  147  A    between atoms: _366  and  _367
REMARK  148  A    between atoms: _366  and  _369
REMARK  149  A    between atoms: _369  and  _370
REMARK  150  A    between atoms: _370  and  _371
REMARK  151  A    between atoms: _374  and  _376
REMARK  152  A    between atoms: _376  and  _377
REMARK  153  A    between atoms: _376  and  _379
REMARK  154  A    between atoms: _379  and  _380
REMARK  155  A    between atoms: _383  and  _385
REMARK  156  A    between atoms: _385  and  _386
REMARK  157  A    between atoms: _389  and  _391
REMARK  158  A    between atoms: _391  and  _392
REMARK  159  A    between atoms: _391  and  _394
REMARK  160  A    between atoms: _394  and  _395
REMARK  161  A    between atoms: _395  and  _396
REMARK  162  A    between atoms: _396  and  _397
REMARK  163  A    between atoms: _406  and  _408
REMARK  164  A    between atoms: _408  and  _409
REMARK  165  A    between atoms: _408  and  _411
REMARK  166  A    between atoms: _411  and  _412
REMARK  167  A    between atoms: _415  and  _417
REMARK  168  A    between atoms: _417  and  _418
REMARK  169  A    between atoms: _417  and  _420
REMARK  170  A    between atoms: _420  and  _421
REMARK  171  A    between atoms: _431  and  _433
REMARK  172  A    between atoms: _433  and  _434
REMARK  173  A    between atoms: _433  and  _436
REMARK  174  A    between atoms: _436  and  _437
REMARK  175  A    between atoms: _442  and  _443
REMARK  176  A    between atoms: _445  and  _447
REMARK  177  A    between atoms: _447  and  _448
REMARK  178  A    between atoms: _447  and  _450
REMARK  179  A    between atoms: _450  and  _451
REMARK  180  A    between atoms: _451  and  _452
REMARK  181  A    between atoms: _452  and  _453
REMARK  182  A    between atoms: _453  and  _454
REMARK  183  A    between atoms: _458  and  _460
REMARK  184  A    between atoms: _460  and  _461
REMARK  185  A    between atoms: _460  and  _463
REMARK  186  A    between atoms: _463  and  _464
REMARK  187  A    between atoms: _467  and  _469
REMARK  188  A    between atoms: _469  and  _470
REMARK  189  A    between atoms: _469  and  _472
REMARK  190  A    between atoms: _475  and  _477
REMARK  191  A    between atoms: _477  and  _478
REMARK  192  A    between atoms: _477  and  _480
REMARK  193  A    between atoms: _480  and  _481
REMARK  194  A    between atoms: _484  and  _486
REMARK  195  A    between atoms: _486  and  _487
REMARK  196  A    between atoms: _486  and  _489
REMARK  197  A    between atoms: _489  and  _490
REMARK  198  A    between atoms: _492  and  _494
REMARK  199  A    between atoms: _494  and  _495
REMARK  200  A    between atoms: _497  and  _499
REMARK  201  A    between atoms: _499  and  _500
REMARK  202  A    between atoms: _499  and  _502
REMARK  203  A    between atoms: _502  and  _503
REMARK  204  A    between atoms: _506  and  _508
REMARK  205  A    between atoms: _508  and  _509
REMARK  206  A    between atoms: _508  and  _511
REMARK  207  A    between atoms: _511  and  _512
REMARK  208  A    between atoms: _515  and  _517
REMARK  209  A    between atoms: _517  and  _518
REMARK  210  A    between atoms: _517  and  _520
REMARK  211  A    between atoms: _520  and  _521
REMARK  212  A    between atoms: _526  and  _528
REMARK  213  A    between atoms: _528  and  _529
REMARK  214  A    between atoms: _528  and  _531
REMARK  215  A    between atoms: _531  and  _532
REMARK  216  A    between atoms: _535  and  _537
REMARK  217  A    between atoms: _537  and  _538
REMARK  218  A    between atoms: _537  and  _540
REMARK  219  A    between atoms: _540  and  _541
REMARK  220  A    between atoms: _541  and  _542
REMARK  221  A    between atoms: _542  and  _543
REMARK  222  A    between atoms: _552  and  _554
REMARK  223  A    between atoms: _554  and  _555
REMARK  224  A    between atoms: _554  and  _557
REMARK  225  A    between atoms: _557  and  _558
REMARK  226  A    between atoms: _558  and  _559
REMARK  227  A    between atoms: _559  and  _560
REMARK  228  A    between atoms: _569  and  _571
REMARK  229  A    between atoms: _571  and  _572
REMARK  230  A    between atoms: _571  and  _574
REMARK  231  A    between atoms: _574  and  _575
REMARK  232  A    between atoms: _575  and  _576
REMARK  233  A    between atoms: _576  and  _577
REMARK  234  A    between atoms: _577  and  _578
REMARK  235  A    between atoms: _582  and  _584
REMARK  236  A    between atoms: _584  and  _585
REMARK  237  A    between atoms: _584  and  _587
REMARK  238  A    between atoms: _587  and  _588
REMARK  239  A    between atoms: _590  and  _592
REMARK  240  A    between atoms: _592  and  _593
REMARK  241  A    between atoms: _592  and  _595
REMARK  242  A    between atoms: _595  and  _596
REMARK  243  A    between atoms: _599  and  _601
REMARK  244  A    between atoms: _601  and  _602
REMARK  245  A    between atoms: _601  and  _604
REMARK  246  A    between atoms: _607  and  _609
REMARK  247  A    between atoms: _609  and  _610
REMARK  248  A    between atoms: _612  and  _614
REMARK  249  A    between atoms: _614  and  _615
REMARK                            x       y       z     vdW  Elec       q    Type
REMARK                         _______ _______ _______ _____ _____    ______ ____
ROOT
ATOM      1  CG  LYS A   1      28.753   6.177  -3.641  0.00  0.00    -0.000 C 
ENDROOT
BRANCH   1   2
ATOM      2  CB  LYS A   1      28.192   5.547  -4.913  0.00  0.00    +0.025 C 
BRANCH   2   3
ATOM      3  CA  LYS A   1      26.946   6.271  -5.440  0.00  0.00    +0.133 C 
BRANCH   3   4
ATOM      4  N   LYS A   1      27.273   7.668  -5.699  0.00  0.00    -0.239 NA
ATOM      5  H   LYS A   1      26.780   8.416  -5.172  0.00  0.00    +0.142 HD
ENDBRANCH   3   4
BRANCH   3   6
ATOM      6  C   LYS A   1      25.815   6.116  -4.424  0.00  0.00    +0.224 C 
ATOM      7  O   LYS A   1      25.391   7.088  -3.787  0.00  0.00    -0.287 OA
ENDBRANCH   3   6
ENDBRANCH   2   3
ENDBRANCH   1   2
BRANCH   1   8
ATOM      8  CD  LYS A   1      30.045   5.510  -3.202  0.00  0.00    -0.024 C 
BRANCH   8   9
ATOM      9  CE  LYS A   1      30.544   6.118  -1.909  0.00  0.00    -0.086 C 
BRANCH   9  10
ATOM     10  NZ  LYS A   1      30.858   7.563  -2.051  0.00  0.00    +0.380 N 
ATOM     11  HZ1 LYS A   1      31.196   7.934  -1.140  0.00  0.00    -0.089 HD
ATOM     12  HZ2 LYS A   1      30.001   8.076  -2.340  0.00  0.00    -0.089 HD
ATOM     13  HZ3 LYS A   1      31.597   7.687  -2.772  0.00  0.00    -0.089 HD
ENDBRANCH   9  10
ENDBRANCH   8   9
ENDBRANCH   1   8
TORSDOF 7
REMARK  Name = ../refined-set-2016/3ckp/3ckp_pocket.pdb
REMARK  249 active torsions:
REMARK  status: ('A' for Active; 'I' for Inactive)
REMARK    1  A    between atoms: _1  and  _3
REMARK    2  A    between atoms: _3  and  _4
REMARK    3  A    between atoms: _3  and  _6
REMARK    4  A    between atoms: _6  and  _7
REMARK    5  A    between atoms: _7  and  _8
REMARK    6  A    between atoms: _8  and  _9
REMARK    7  A    between atoms: _9  and  _10
REMARK    8  A    between atoms: _14  and  _16
REMARK    9  A    between atoms: _16  and  _17
REMARK   10  A    between atoms: _16  and  _19
REMARK   11  A    between atoms: _19  and  _20
REMARK   12  A    between atoms: _22  and  _24
REMARK   13  A    between atoms: _24  and  _25
REMARK   14  A    between atoms: _27  and  _29
REMARK   15  A    between atoms: _29  and  _30
REMARK   16  A    between atoms: _29  and  _32
REMARK   17  A    between atoms: _32  and  _33
REMARK   18  A    between atoms: _33  and  _34
REMARK   19  A    between atoms: _39  and  _41
REMARK   20  A    between atoms: _41  and  _42
REMARK   21  A    between atoms: _44  and  _46
REMARK   22  A    between atoms: _46  and  _47
REMARK   23  A    between atoms: _46  and  _49
REMARK   24  A    between atoms: _49  and  _50
REMARK   25  A    between atoms: _55  and  _56
REMARK   26  A    between atoms: _58  and  _60
REMARK   27  A    between atoms: _60  and  _61
REMARK   28  A    between atoms: _60  and  _63
REMARK   29  A    between atoms: _63  and  _64
REMARK   30  A    between atoms: _69  and  _70
REMARK   31  A    between atoms: _72  and  _74
REMARK   32  A    between atoms: _74  and  _75
REMARK   33  A    between atoms: _74  and  _77
REMARK   34  A    between atoms: _77  and  _78
REMARK   35  A    between atoms: _81  and  _83
REMARK   36  A    between atoms: _83  and  _84
REMARK   37  A    between atoms: _83  and  _86
REMARK   38  A    between atoms: _89  and  _91
REMARK   39  A    between atoms: _91  and  _92
REMARK   40  A    between atoms: _91  and  _94
REMARK   41  A    between atoms: _94  and  _95
REMARK   42  A    between atoms: _98  and  _100
REMARK   43  A    between atoms: _100  and  _101
REMARK   44  A    between atoms: _100  and  _103
REMARK   45  A    between atoms: _103  and  _104
REMARK   46  A    between atoms: _107  and  _109
REMARK   47  A    between atoms: _109  and  _110
REMARK   48  A    between atoms: _112  and  _114
REMARK   49  A    between atoms: _114  and  _115
REMARK   50  A    between atoms: _114  and  _117
REMARK   51  A    between atoms: _117  and  _118
REMARK   52  A    between atoms: _120  and  _122
REMARK   53  A    between atoms: _122  and  _123
REMARK   54  A    between atoms: _122  and  _125
REMARK   55  A    between atoms: _125  and  _126
REMARK   56  A    between atoms: _128  and  _130
REMARK   57  A    between atoms: _130  and  _131
REMARK   58  A    between atoms: _130  and  _133
REMARK   59  A    between atoms: _133  and  _134
REMARK   60  A    between atoms: _139  and  _141
REMARK   61  A    between atoms: _141  and  _142
REMARK   62  A    between atoms: _141  and  _144
REMARK   63  A    between atoms: _144  and  _145
REMARK   64  A    between atoms: _150  and  _151
REMARK   65  A    between atoms: _153  and  _155
REMARK   66  A    between atoms: _155  and  _156
REMARK   67  A    between atoms: _155  and  _158
REMARK   68  A    between atoms: _162  and  _163
REMARK   69  A    between atoms: _168  and  _170
REMARK   70  A    between atoms: _170  and  _171
REMARK   71  A    between atoms: _170  and  _173
REMARK   72  A    between atoms: _173  and  _174
REMARK   73  A    between atoms: _179  and  _180
REMARK   74  A    between atoms: _182  and  _184
REMARK   75  A    between atoms: _184  and  _185
REMARK   76  A    between atoms: _184  and  _187
REMARK   77  A    between atoms: _187  and  _188
REMARK   78  A    between atoms: _191  and  _193
REMARK   79  A    between atoms: _193  and  _194
REMARK   80  A    between atoms: _193  and  _196
REMARK   81  A    between atoms: _196  and  _197
REMARK   82  A    between atoms: _197  and  _198
REMARK   83  A    between atoms: _203  and  _205
REMARK   84  A    between atoms: _205  and  _206
REMARK   85  A    between atoms: _208  and  _210
REMARK   86  A    between atoms: _210  and  _211
REMARK   87  A    between atoms: _210  and  _213
REMARK   88  A    between atoms: _213  and  _214
REMARK   89  A    between atoms: _214  and  _215
REMARK   90  A    between atoms: _215  and  _216
REMARK   91  A    between atoms: _216  and  _217
REMARK   92  A    between atoms: _221  and  _223
REMARK   93  A    between atoms: _223  and  _224
REMARK   94  A    between atoms: _223  and  _226
REMARK   95  A    between atoms: _226  and  _227
REMARK   96  A    between atoms: _237  and  _239
REMARK   97  A    between atoms: _239  and  _240
REMARK   98  A    between atoms: _239  and  _242
REMARK   99  A    between atoms: _242  and  _243
REMARK  100  A    between atoms: _246  and  _248
REMARK  101  A    between atoms: _248  and  _249
REMARK  102  A    between atoms: _248  and  _251
REMARK  103  A    between atoms: _251  and  _252
REMARK  104  A    between atoms: _252  and  _253
REMARK  105  A    between atoms: _253  and  _254
REMARK  106  A    between atoms: _254  and  _255
REMARK  107  A    between atoms: _259  and  _261
REMARK  108  A    between atoms: _261  and  _262
REMARK  109  A    between atoms: _261  and  _264
REMARK  110  A    between atoms: _264  and  _265
REMARK  111  A    between atoms: _271  and  _273
REMARK  112  A    between atoms: _273  and  _274
REMARK  113  A    between atoms: _273  and  _276
REMARK  114  A    between atoms: _276  and  _277
REMARK  115  A    between atoms: _283  and  _285
REMARK  116  A    between atoms: _285  and  _286
REMARK  117  A    between atoms: _285  and  _288
REMARK  118  A    between atoms: _288  and  _289
REMARK  119  A    between atoms: _292  and  _294
REMARK  120  A    between atoms: _294  and  _295
REMARK  121  A    between atoms: _294  and  _297
REMARK  122  A    between atoms: _297  and  _298
REMARK  123  A    between atoms: _300  and  _302
REMARK  124  A    between atoms: _302  and  _303
REMARK  125  A    between atoms: _302  and  _305
REMARK  126  A    between atoms: _305  and  _306
REMARK  127  A    between atoms: _316  and  _318
REMARK  128  A    between atoms: _318  and  _319
REMARK  129  A    between atoms: _321  and  _323
REMARK  130  A    between atoms: _323  and  _324
REMARK  131  A    between atoms: _323  and  _326
REMARK  132  A    between atoms: _326  and  _327
REMARK  133  A    between atoms: _330  and  _332
REMARK  134  A    between atoms: _332  and  _333
REMARK  135  A    between atoms: _335  and  _337
REMARK  136  A    between atoms: _337  and  _338
REMARK  137  A    between atoms: _337  and  _340
REMARK  138  A    between atoms: _340  and  _341
REMARK  139  A    between atoms: _344  and  _346
REMARK  140  A    between atoms: _346  and  _347
REMARK  141  A    between atoms: _350  and  _352
REMARK  142  A    between atoms: _352  and  _353
REMARK  143  A    between atoms: _352  and  _355
REMARK  144  A    between atoms: _355  and  _356
REMARK  145  A    between atoms: _361  and  _362
REMARK  146  A    between atoms: _364  and  _366
REMARK  147  A    between atoms: _366  and  _367
REMARK  148  A    between atoms: _366  and  _369
REMARK  149  A    between atoms: _369  and  _370
REMARK  150  A    between atoms: _370  and  _371
REMARK  151  A    between atoms: _374  and  _376
REMARK  152  A    between atoms: _376  and  _377
REMARK  153  A    between atoms: _376  and  _379
REMARK  154  A    between atoms: _379  and  _380
REMARK  155  A    between atoms: _383  and  _385
REMARK  156  A    between atoms: _385  and  _386
REMARK  157  A    between atoms: _389  and  _391
REMARK  158  A    between atoms: _391  and  _392
REMARK  159  A    between atoms: _391  and  _394
REMARK  160  A    between atoms: _394  and  _395
REMARK  161  A    between atoms: _395  and  _396
REMARK  162  A    between atoms: _396  and  _397
REMARK  163  A    between atoms: _406  and  _408
REMARK  164  A    between atoms: _408  and  _409
REMARK  165  A    between atoms: _408  and  _411
REMARK  166  A    between atoms: _411  and  _412
REMARK  167  A    between atoms: _415  and  _417
REMARK  168  A    between atoms: _417  and  _418
REMARK  169  A    between atoms: _417  and  _420
REMARK  170  A    between atoms: _420  and  _421
REMARK  171  A    between atoms: _431  and  _433
REMARK  172  A    between atoms: _433  and  _434
REMARK  173  A    between atoms: _433  and  _436
REMARK  174  A    between atoms: _436  and  _437
REMARK  175  A    between atoms: _442  and  _443
REMARK  176  A    between atoms: _445  and  _447
REMARK  177  A    between atoms: _447  and  _448
REMARK  178  A    between atoms: _447  and  _450
REMARK  179  A    between atoms: _450  and  _451
REMARK  180  A    between atoms: _451  and  _452
REMARK  181  A    between atoms: _452  and  _453
REMARK  182  A    between atoms: _453  and  _454
REMARK  183  A    between atoms: _458  and  _460
REMARK  184  A    between atoms: _460  and  _461
REMARK  185  A    between atoms: _460  and  _463
REMARK  186  A    between atoms: _463  and  _464
REMARK  187  A    between atoms: _467  and  _469
REMARK  188  A    between atoms: _469  and  _470
REMARK  189  A    between atoms: _469  and  _472
REMARK  190  A    between atoms: _475  and  _477
REMARK  191  A    between atoms: _477  and  _478
REMARK  192  A    between atoms: _477  and  _480
REMARK  193  A    between atoms: _480  and  _481
REMARK  194  A    between atoms: _484  and  _486
REMARK  195  A    between atoms: _486  and  _487
REMARK  196  A    between atoms: _486  and  _489
REMARK  197  A    between atoms: _489  and  _490
REMARK  198  A    between atoms: _492  and  _494
REMARK  199  A    between atoms: _494  and  _495
REMARK  200  A    between atoms: _497  and  _499
REMARK  201  A    between atoms: _499  and  _500
REMARK  202  A    between atoms: _499  and  _502
REMARK  203  A    between atoms: _502  and  _503
REMARK  204  A    between atoms: _506  and  _508
REMARK  205  A    between atoms: _508  and  _509
REMARK  206  A    between atoms: _508  and  _511
REMARK  207  A    between atoms: _511  and  _512
REMARK  208  A    between atoms: _515  and  _517
REMARK  209  A    between atoms: _517  and  _518
REMARK  210  A    between atoms: _517  and  _520
REMARK  211  A    between atoms: _520  and  _521
REMARK  212  A    between atoms: _526  and  _528
REMARK  213  A    between atoms: _528  and  _529
REMARK  214  A    between atoms: _528  and  _531
REMARK  215  A    between atoms: _531  and  _532
REMARK  216  A    between atoms: _535  and  _537
REMARK  217  A    between atoms: _537  and  _538
REMARK  218  A    between atoms: _537  and  _540
REMARK  219  A    between atoms: _540  and  _541
REMARK  220  A    between atoms: _541  and  _542
REMARK  221  A    between atoms: _542  and  _543
REMARK  222  A    between atoms: _552  and  _554
REMARK  223  A    between atoms: _554  and  _555
REMARK  224  A    between atoms: _554  and  _557
REMARK  225  A    between atoms: _557  and  _558
REMARK  226  A    between atoms: _558  and  _559
REMARK  227  A    between atoms: _559  and  _560
REMARK  228  A    between atoms: _569  and  _571
REMARK  229  A    between atoms: _571  and  _572
REMARK  230  A    between atoms: _571  and  _574
REMARK  231  A    between atoms: _574  and  _575
REMARK  232  A    between atoms: _575  and  _576
REMARK  233  A    between atoms: _576  and  _577
REMARK  234  A    between atoms: _577  and  _578
REMARK  235  A    between atoms: _582  and  _584
REMARK  236  A    between atoms: _584  and  _585
REMARK  237  A    between atoms: _584  and  _587
REMARK  238  A    between atoms: _587  and  _588
REMARK  239  A    between atoms: _590  and  _592
REMARK  240  A    between atoms: _592  and  _593
REMARK  241  A    between atoms: _592  and  _595
REMARK  242  A    between atoms: _595  and  _596
REMARK  243  A    between atoms: _599  and  _601
REMARK  244  A    between atoms: _601  and  _602
REMARK  245  A    between atoms: _601  and  _604
REMARK  246  A    between atoms: _607  and  _609
REMARK  247  A    between atoms: _609  and  _610
REMARK  248  A    between atoms: _612  and  _614
REMARK  249  A    between atoms: _614  and  _615
REMARK                            x       y       z     vdW  Elec       q    Type
REMARK                         _______ _______ _______ _____ _____    ______ ____
ROOT
ATOM      1  C   THR A   6      23.647   5.106   9.799  0.00  0.00    +0.243 C 
ATOM      2  N   THR A   7      23.298   6.049  10.674  0.00  0.00    -0.295 N 
ATOM      3  H   THR A   7      24.002   6.754  10.972  0.00  0.00    +0.150 HD
ATOM      4  O   THR A   6      22.877   4.245   9.420  0.00  0.00    -0.273 OA
ENDROOT
BRANCH   1   5
ATOM      5  CA  THR A   6      25.072   5.124   9.272  0.00  0.00    +0.176 C 
BRANCH   5   8
ATOM      6  C   GLY A   5      26.705   3.515  10.068  0.00  0.00    +0.243 C 
ATOM      7  O   GLY A   5      27.285   4.370  10.751  0.00  0.00    -0.273 OA
ATOM      8  N   THR A   6      25.644   3.787   9.312  0.00  0.00    -0.295 N 
ATOM      9  H   THR A   6      25.217   3.031   8.740  0.00  0.00    +0.150 HD
BRANCH   6  10
ATOM     10  CA  GLY A   5      27.183   2.078  10.054  0.00  0.00    +0.176 C 
BRANCH  10  13
ATOM     11  C   SER A   4      25.261   0.617   9.798  0.00  0.00    +0.243 C 
ATOM     12  O   SER A   4      24.943   0.726  10.982  0.00  0.00    -0.273 OA
ATOM     13  N   GLY A   5      26.319   1.222   9.268  0.00  0.00    -0.295 N 
ATOM     14  H   GLY A   5      26.532   1.077   8.261  0.00  0.00    +0.150 HD
BRANCH  11  15
ATOM     15  CA  SER A   4      24.445  -0.238   8.829  0.00  0.00    +0.178 C 
BRANCH  15  17
ATOM     16  C   ASP A   3      24.856   1.023   6.770  0.00  0.00    +0.241 C 
ATOM     17  N   SER A   4      24.962  -0.112   7.465  0.00  0.00    -0.295 N 
ATOM     18  H   SER A   4      25.426  -0.932   7.024  0.00  0.00    +0.150 HD
ATOM     19  O   ASP A   3      24.316   2.036   7.213  0.00  0.00    -0.273 OA
BRANCH  16  20
ATOM     20  CA  ASP A   3      25.455   1.012   5.369  0.00  0.00    +0.160 C 
BRANCH  20  22
ATOM     21  C   VAL A   2      24.699   0.048   3.294  0.00  0.00    +0.241 C 
ATOM     22  N   ASP A   3      24.480   0.884   4.298  0.00  0.00    -0.297 N 
ATOM     23  H   ASP A   3      23.608   1.450   4.320  0.00  0.00    +0.150 HD
ATOM     24  O   VAL A   2      25.687  -0.675   3.248  0.00  0.00    -0.273 OA
BRANCH  21  25
ATOM     25  CA  VAL A   2      23.674   0.037   2.167  0.00  0.00    +0.148 C 
BRANCH  25  28
ATOM     26  C   ILE A   1      24.391   1.763   0.642  0.00  0.00    +0.238 C 
ATOM     27  O   ILE A   1      23.660   2.590   1.197  0.00  0.00    -0.274 OA
ATOM     28  N   VAL A   2      24.444   0.495   1.016  0.00  0.00    -0.297 N 
ATOM     29  H   VAL A   2      25.036  -0.177   0.488  0.00  0.00    +0.150 HD
BRANCH  26  30
ATOM     30  CA  ILE A   1      25.288   2.164  -0.522  0.00  0.00    +0.145 C 
BRANCH  30  31
ATOM     31  CB  ILE A   1      26.669   2.490   0.084  0.00  0.00    +0.025 C 
ATOM     32  CG2 ILE A   1      27.661   2.845  -1.026  0.00  0.00    +0.002 C 
BRANCH  31  33
ATOM     33  CG1 ILE A   1      26.518   3.637   1.098  0.00  0.00    +0.002 C 
ATOM     34  CD1 ILE A   1      27.783   3.965   1.863  0.00  0.00    +0.000 C 
ENDBRANCH  31  33
ENDBRANCH  30  31
BRANCH  30  35
ATOM     35  N   ILE A   1      24.784   3.294  -1.298  0.00  0.00    -0.238 NA
ATOM     36  H   ILE A   1      24.400   4.123  -0.801  0.00  0.00    +0.142 HD
ENDBRANCH  30  35
ENDBRANCH  26  30
ENDBRANCH  25  28
BRANCH  25  37
ATOM     37  CB  VAL A   2      23.123  -1.372   1.958  0.00  0.00    +0.027 C 
ATOM     38  CG2 VAL A   2      22.174  -1.714   3.095  0.00  0.00    +0.002 C 
ATOM     39  CG1 VAL A   2      22.410  -1.449   0.609  0.00  0.00    +0.002 C 
ENDBRANCH  25  37
ENDBRANCH  21  25
ENDBRANCH  20  22
BRANCH  20  40
ATOM     40  CB  ASP A   3      26.268   2.284   5.101  0.00  0.00    +0.143 C 
BRANCH  40  41
ATOM     41  CG  ASP A   3      27.105   2.741   6.294  0.00  0.00    +0.367 C 
ATOM     42  OD2 ASP A   3      27.369   1.943   7.213  0.00  0.00    -0.246 OA
ATOM     43  OD1 ASP A   3      27.518   3.923   6.295  0.00  0.00    -0.246 OA
ENDBRANCH  40  41
ENDBRANCH  20  40
ENDBRANCH  16  20
ENDBRANCH  15  17
BRANCH  15  44
ATOM     44  CB  SER A   4      24.495  -1.691   9.274  0.00  0.00    +0.166 C 
BRANCH  44  45
ATOM     45  OG  SER A   4      25.820  -2.166   9.269  0.00  0.00    -0.380 OA
ATOM     46  H   SER A   4      26.367  -1.621   9.889  0.00  0.00    +0.211 HD
ENDBRANCH  44  45
ENDBRANCH  15  44
ENDBRANCH  11  15
ENDBRANCH  10  13
ENDBRANCH   6  10
ENDBRANCH   5   8
BRANCH   5  47
ATOM     47  CB  THR A   6      25.096   5.690   7.839  0.00  0.00    +0.137 C 
ATOM     48  CG2 THR A   6      24.300   6.993   7.760  0.00  0.00    +0.034 C 
BRANCH  47  49
ATOM     49  OG1 THR A   6      26.458   5.929   7.460  0.00  0.00    -0.382 OA
ATOM     50  HG1 THR A   6      26.963   5.078   7.494  0.00  0.00    +0.210 HD
ENDBRANCH  47  49
ENDBRANCH   5  47
ENDBRANCH   1   5
BRANCH   2  51
ATOM     51  CA  THR A   7      21.939   6.110  11.224  0.00  0.00    +0.176 C 
BRANCH  51  52
ATOM     52  C   THR A   7      20.898   6.537  10.193  0.00  0.00    +0.243 C 
ATOM     53  O   THR A   7      19.899   5.857   9.998  0.00  0.00    -0.273 OA
ATOM     54  N   ASN A   8      21.140   7.665   9.528  0.00  0.00    -0.297 N 
ATOM     55  H   ASN A   8      22.038   8.166   9.683  0.00  0.00    +0.150 HD
BRANCH  54  56
ATOM     56  CA  ASN A   8      20.174   8.208   8.592  0.00  0.00    +0.158 C 
BRANCH  56  57
ATOM     57  C   ASN A   8      20.087   7.693   7.165  0.00  0.00    +0.241 C 
ATOM     58  O   ASN A   8      20.860   6.857   6.717  0.00  0.00    -0.273 OA
ATOM     59  N   LEU A   9      19.094   8.226   6.463  0.00  0.00    -0.297 N 
ATOM     60  H   LEU A   9      18.447   8.887   6.939  0.00  0.00    +0.150 HD
BRANCH  59  61
ATOM     61  CA  LEU A   9      18.872   7.928   5.063  0.00  0.00    +0.149 C 
BRANCH  61  62
ATOM     62  C   LEU A   9      19.468   9.159   4.401  0.00  0.00    +0.241 C 
ATOM     63  N   ARG A  10      20.769   9.155   4.210  0.00  0.00    -0.298 N 
ATOM     64  H   ARG A  10      21.335   8.331   4.495  0.00  0.00    +0.150 HD
ATOM     65  O   LEU A   9      18.775  10.109   4.101  0.00  0.00    -0.273 OA
BRANCH  63  66
ATOM     66  CA  ARG A  10      21.410  10.298   3.603  0.00  0.00    +0.137 C 
BRANCH  66  67
ATOM     67  C   ARG A  10      21.078  10.333   2.111  0.00  0.00    +0.227 C 
ATOM     68  O   ARG A  10      21.097   9.306   1.437  0.00  0.00    -0.286 OA
ENDBRANCH  66  67
BRANCH  66  69
ATOM     69  CB  ARG A  10      22.927  10.206   3.851  0.00  0.00    +0.031 C 
BRANCH  69  70
ATOM     70  CG  ARG A  10      23.314  10.212   5.347  0.00  0.00    +0.045 C 
BRANCH  70  71
ATOM     71  CD  ARG A  10      24.787   9.882   5.613  0.00  0.00    +0.174 C 
BRANCH  71  72
ATOM     72  NE  ARG A  10      25.711  10.686   4.813  0.00  0.00    -0.265 N 
ATOM     73  CZ  ARG A  10      25.780  12.012   4.849  0.00  0.00    +0.342 C 
ATOM     74  NH2 ARG A  10      24.977  12.698   5.658  0.00  0.00    -0.292 N 
ATOM     75 HH21 ARG A  10      24.295  12.196   6.262  0.00  0.00    +0.255 HD
ATOM     76 HH22 ARG A  10      25.031  13.736   5.686  0.00  0.00    +0.255 HD
ATOM     77  NH1 ARG A  10      26.653  12.652   4.074  0.00  0.00    -0.292 N 
ATOM     78 HH11 ARG A  10      26.709  13.690   4.101  0.00  0.00    +0.255 HD
ATOM     79 HH12 ARG A  10      27.279  12.114   3.442  0.00  0.00    +0.255 HD
ATOM     80  HE  ARG A  10      26.359  10.185   4.172  0.00  0.00    +0.259 HD
ENDBRANCH  71  72
ENDBRANCH  70  71
ENDBRANCH  69  70
ENDBRANCH  66  69
ENDBRANCH  63  66
ENDBRANCH  61  62
BRANCH  61  81
ATOM     81  CB  LEU A   9      17.380   7.853   4.748  0.00  0.00    +0.029 C 
BRANCH  81  82
ATOM     82  CG  LEU A   9      16.939   7.578   3.300  0.00  0.00    +0.002 C 
ATOM     83  CD2 LEU A   9      16.582   8.875   2.678  0.00  0.00    +0.000 C 
ATOM     84  CD1 LEU A   9      18.006   6.866   2.478  0.00  0.00    +0.000 C 
ENDBRANCH  81  82
ENDBRANCH  61  81
ENDBRANCH  59  61
ENDBRANCH  56  57
BRANCH  56  85
ATOM     85  CB  ASN A   8      20.340   9.722   8.508  0.00  0.00    +0.114 C 
BRANCH  85  86
ATOM     86  CG  ASN A   8      20.098  10.429   9.838  0.00  0.00    +0.222 C 
ATOM     87  OD1 ASN A   8      19.764   9.806  10.860  0.00  0.00    -0.275 OA
ATOM     88  ND2 ASN A   8      20.269  11.750   9.827  0.00  0.00    -0.329 N 
ATOM     89 HD21 ASN A   8      20.122  12.301  10.697  0.00  0.00    +0.145 HD
ATOM     90 HD22 ASN A   8      20.549  12.231   8.948  0.00  0.00    +0.145 HD
ENDBRANCH  85  86
ENDBRANCH  56  85
ENDBRANCH  54  56
ENDBRANCH  51  52
BRANCH  51  91
ATOM     91  CB  THR A   7      21.799   7.142  12.390  0.00  0.00    +0.137 C 
ATOM     92  CG2 THR A   7      20.439   6.980  13.065  0.00  0.00    +0.034 C 
BRANCH  91  93
ATOM     93  OG1 THR A   7      22.841   6.963  13.358  0.00  0.00    -0.382 OA
ATOM     94  HG1 THR A   7      22.732   7.626  14.085  0.00  0.00    +0.210 HD
ENDBRANCH  91  93
ENDBRANCH  51  91
ENDBRANCH   2  51
TORSDOF 39
REMARK  Name = ../refined-set-2016/3ckp/3ckp_pocket.pdb
REMARK  249 active torsions:
REMARK  status: ('A' for Active; 'I' for Inactive)
REMARK    1  A    between atoms: _1  and  _3
REMARK    2  A    between atoms: _3  and  _4
REMARK    3  A    between atoms: _3  and  _6
REMARK    4  A    between atoms: _6  and  _7
REMARK    5  A    between atoms: _7  and  _8
REMARK    6  A    between atoms: _8  and  _9
REMARK    7  A    between atoms: _9  and  _10
REMARK    8  A    between atoms: _14  and  _16
REMARK    9  A    between atoms: _16  and  _17
REMARK   10  A    between atoms: _16  and  _19
REMARK   11  A    between atoms: _19  and  _20
REMARK   12  A    between atoms: _22  and  _24
REMARK   13  A    between atoms: _24  and  _25
REMARK   14  A    between atoms: _27  and  _29
REMARK   15  A    between atoms: _29  and  _30
REMARK   16  A    between atoms: _29  and  _32
REMARK   17  A    between atoms: _32  and  _33
REMARK   18  A    between atoms: _33  and  _34
REMARK   19  A    between atoms: _39  and  _41
REMARK   20  A    between atoms: _41  and  _42
REMARK   21  A    between atoms: _44  and  _46
REMARK   22  A    between atoms: _46  and  _47
REMARK   23  A    between atoms: _46  and  _49
REMARK   24  A    between atoms: _49  and  _50
REMARK   25  A    between atoms: _55  and  _56
REMARK   26  A    between atoms: _58  and  _60
REMARK   27  A    between atoms: _60  and  _61
REMARK   28  A    between atoms: _60  and  _63
REMARK   29  A    between atoms: _63  and  _64
REMARK   30  A    between atoms: _69  and  _70
REMARK   31  A    between atoms: _72  and  _74
REMARK   32  A    between atoms: _74  and  _75
REMARK   33  A    between atoms: _74  and  _77
REMARK   34  A    between atoms: _77  and  _78
REMARK   35  A    between atoms: _81  and  _83
REMARK   36  A    between atoms: _83  and  _84
REMARK   37  A    between atoms: _83  and  _86
REMARK   38  A    between atoms: _89  and  _91
REMARK   39  A    between atoms: _91  and  _92
REMARK   40  A    between atoms: _91  and  _94
REMARK   41  A    between atoms: _94  and  _95
REMARK   42  A    between atoms: _98  and  _100
REMARK   43  A    between atoms: _100  and  _101
REMARK   44  A    between atoms: _100  and  _103
REMARK   45  A    between atoms: _103  and  _104
REMARK   46  A    between atoms: _107  and  _109
REMARK   47  A    between atoms: _109  and  _110
REMARK   48  A    between atoms: _112  and  _114
REMARK   49  A    between atoms: _114  and  _115
REMARK   50  A    between atoms: _114  and  _117
REMARK   51  A    between atoms: _117  and  _118
REMARK   52  A    between atoms: _120  and  _122
REMARK   53  A    between atoms: _122  and  _123
REMARK   54  A    between atoms: _122  and  _125
REMARK   55  A    between atoms: _125  and  _126
REMARK   56  A    between atoms: _128  and  _130
REMARK   57  A    between atoms: _130  and  _131
REMARK   58  A    between atoms: _130  and  _133
REMARK   59  A    between atoms: _133  and  _134
REMARK   60  A    between atoms: _139  and  _141
REMARK   61  A    between atoms: _141  and  _142
REMARK   62  A    between atoms: _141  and  _144
REMARK   63  A    between atoms: _144  and  _145
REMARK   64  A    between atoms: _150  and  _151
REMARK   65  A    between atoms: _153  and  _155
REMARK   66  A    between atoms: _155  and  _156
REMARK   67  A    between atoms: _155  and  _158
REMARK   68  A    between atoms: _162  and  _163
REMARK   69  A    between atoms: _168  and  _170
REMARK   70  A    between atoms: _170  and  _171
REMARK   71  A    between atoms: _170  and  _173
REMARK   72  A    between atoms: _173  and  _174
REMARK   73  A    between atoms: _179  and  _180
REMARK   74  A    between atoms: _182  and  _184
REMARK   75  A    between atoms: _184  and  _185
REMARK   76  A    between atoms: _184  and  _187
REMARK   77  A    between atoms: _187  and  _188
REMARK   78  A    between atoms: _191  and  _193
REMARK   79  A    between atoms: _193  and  _194
REMARK   80  A    between atoms: _193  and  _196
REMARK   81  A    between atoms: _196  and  _197
REMARK   82  A    between atoms: _197  and  _198
REMARK   83  A    between atoms: _203  and  _205
REMARK   84  A    between atoms: _205  and  _206
REMARK   85  A    between atoms: _208  and  _210
REMARK   86  A    between atoms: _210  and  _211
REMARK   87  A    between atoms: _210  and  _213
REMARK   88  A    between atoms: _213  and  _214
REMARK   89  A    between atoms: _214  and  _215
REMARK   90  A    between atoms: _215  and  _216
REMARK   91  A    between atoms: _216  and  _217
REMARK   92  A    between atoms: _221  and  _223
REMARK   93  A    between atoms: _223  and  _224
REMARK   94  A    between atoms: _223  and  _226
REMARK   95  A    between atoms: _226  and  _227
REMARK   96  A    between atoms: _237  and  _239
REMARK   97  A    between atoms: _239  and  _240
REMARK   98  A    between atoms: _239  and  _242
REMARK   99  A    between atoms: _242  and  _243
REMARK  100  A    between atoms: _246  and  _248
REMARK  101  A    between atoms: _248  and  _249
REMARK  102  A    between atoms: _248  and  _251
REMARK  103  A    between atoms: _251  and  _252
REMARK  104  A    between atoms: _252  and  _253
REMARK  105  A    between atoms: _253  and  _254
REMARK  106  A    between atoms: _254  and  _255
REMARK  107  A    between atoms: _259  and  _261
REMARK  108  A    between atoms: _261  and  _262
REMARK  109  A    between atoms: _261  and  _264
REMARK  110  A    between atoms: _264  and  _265
REMARK  111  A    between atoms: _271  and  _273
REMARK  112  A    between atoms: _273  and  _274
REMARK  113  A    between atoms: _273  and  _276
REMARK  114  A    between atoms: _276  and  _277
REMARK  115  A    between atoms: _283  and  _285
REMARK  116  A    between atoms: _285  and  _286
REMARK  117  A    between atoms: _285  and  _288
REMARK  118  A    between atoms: _288  and  _289
REMARK  119  A    between atoms: _292  and  _294
REMARK  120  A    between atoms: _294  and  _295
REMARK  121  A    between atoms: _294  and  _297
REMARK  122  A    between atoms: _297  and  _298
REMARK  123  A    between atoms: _300  and  _302
REMARK  124  A    between atoms: _302  and  _303
REMARK  125  A    between atoms: _302  and  _305
REMARK  126  A    between atoms: _305  and  _306
REMARK  127  A    between atoms: _316  and  _318
REMARK  128  A    between atoms: _318  and  _319
REMARK  129  A    between atoms: _321  and  _323
REMARK  130  A    between atoms: _323  and  _324
REMARK  131  A    between atoms: _323  and  _326
REMARK  132  A    between atoms: _326  and  _327
REMARK  133  A    between atoms: _330  and  _332
REMARK  134  A    between atoms: _332  and  _333
REMARK  135  A    between atoms: _335  and  _337
REMARK  136  A    between atoms: _337  and  _338
REMARK  137  A    between atoms: _337  and  _340
REMARK  138  A    between atoms: _340  and  _341
REMARK  139  A    between atoms: _344  and  _346
REMARK  140  A    between atoms: _346  and  _347
REMARK  141  A    between atoms: _350  and  _352
REMARK  142  A    between atoms: _352  and  _353
REMARK  143  A    between atoms: _352  and  _355
REMARK  144  A    between atoms: _355  and  _356
REMARK  145  A    between atoms: _361  and  _362
REMARK  146  A    between atoms: _364  and  _366
REMARK  147  A    between atoms: _366  and  _367
REMARK  148  A    between atoms: _366  and  _369
REMARK  149  A    between atoms: _369  and  _370
REMARK  150  A    between atoms: _370  and  _371
REMARK  151  A    between atoms: _374  and  _376
REMARK  152  A    between atoms: _376  and  _377
REMARK  153  A    between atoms: _376  and  _379
REMARK  154  A    between atoms: _379  and  _380
REMARK  155  A    between atoms: _383  and  _385
REMARK  156  A    between atoms: _385  and  _386
REMARK  157  A    between atoms: _389  and  _391
REMARK  158  A    between atoms: _391  and  _392
REMARK  159  A    between atoms: _391  and  _394
REMARK  160  A    between atoms: _394  and  _395
REMARK  161  A    between atoms: _395  and  _396
REMARK  162  A    between atoms: _396  and  _397
REMARK  163  A    between atoms: _406  and  _408
REMARK  164  A    between atoms: _408  and  _409
REMARK  165  A    between atoms: _408  and  _411
REMARK  166  A    between atoms: _411  and  _412
REMARK  167  A    between atoms: _415  and  _417
REMARK  168  A    between atoms: _417  and  _418
REMARK  169  A    between atoms: _417  and  _420
REMARK  170  A    between atoms: _420  and  _421
REMARK  171  A    between atoms: _431  and  _433
REMARK  172  A    between atoms: _433  and  _434
REMARK  173  A    between atoms: _433  and  _436
REMARK  174  A    between atoms: _436  and  _437
REMARK  175  A    between atoms: _442  and  _443
REMARK  176  A    between atoms: _445  and  _447
REMARK  177  A    between atoms: _447  and  _448
REMARK  178  A    between atoms: _447  and  _450
REMARK  179  A    between atoms: _450  and  _451
REMARK  180  A    between atoms: _451  and  _452
REMARK  181  A    between atoms: _452  and  _453
REMARK  182  A    between atoms: _453  and  _454
REMARK  183  A    between atoms: _458  and  _460
REMARK  184  A    between atoms: _460  and  _461
REMARK  185  A    between atoms: _460  and  _463
REMARK  186  A    between atoms: _463  and  _464
REMARK  187  A    between atoms: _467  and  _469
REMARK  188  A    between atoms: _469  and  _470
REMARK  189  A    between atoms: _469  and  _472
REMARK  190  A    between atoms: _475  and  _477
REMARK  191  A    between atoms: _477  and  _478
REMARK  192  A    between atoms: _477  and  _480
REMARK  193  A    between atoms: _480  and  _481
REMARK  194  A    between atoms: _484  and  _486
REMARK  195  A    between atoms: _486  and  _487
REMARK  196  A    between atoms: _486  and  _489
REMARK  197  A    between atoms: _489  and  _490
REMARK  198  A    between atoms: _492  and  _494
REMARK  199  A    between atoms: _494  and  _495
REMARK  200  A    between atoms: _497  and  _499
REMARK  201  A    between atoms: _499  and  _500
REMARK  202  A    between atoms: _499  and  _502
REMARK  203  A    between atoms: _502  and  _503
REMARK  204  A    between atoms: _506  and  _508
REMARK  205  A    between atoms: _508  and  _509
REMARK  206  A    between atoms: _508  and  _511
REMARK  207  A    between atoms: _511  and  _512
REMARK  208  A    between atoms: _515  and  _517
REMARK  209  A    between atoms: _517  and  _518
REMARK  210  A    between atoms: _517  and  _520
REMARK  211  A    between atoms: _520  and  _521
REMARK  212  A    between atoms: _526  and  _528
REMARK  213  A    between atoms: _528  and  _529
REMARK  214  A    between atoms: _528  and  _531
REMARK  215  A    between atoms: _531  and  _532
REMARK  216  A    between atoms: _535  and  _537
REMARK  217  A    between atoms: _537  and  _538
REMARK  218  A    between atoms: _537  and  _540
REMARK  219  A    between atoms: _540  and  _541
REMARK  220  A    between atoms: _541  and  _542
REMARK  221  A    between atoms: _542  and  _543
REMARK  222  A    between atoms: _552  and  _554
REMARK  223  A    between atoms: _554  and  _555
REMARK  224  A    between atoms: _554  and  _557
REMARK  225  A    between atoms: _557  and  _558
REMARK  226  A    between atoms: _558  and  _559
REMARK  227  A    between atoms: _559  and  _560
REMARK  228  A    between atoms: _569  and  _571
REMARK  229  A    between atoms: _571  and  _572
REMARK  230  A    between atoms: _571  and  _574
REMARK  231  A    between atoms: _574  and  _575
REMARK  232  A    between atoms: _575  and  _576
REMARK  233  A    between atoms: _576  and  _577
REMARK  234  A    between atoms: _577  and  _578
REMARK  235  A    between atoms: _582  and  _584
REMARK  236  A    between atoms: _584  and  _585
REMARK  237  A    between atoms: _584  and  _587
REMARK  238  A    between atoms: _587  and  _588
REMARK  239  A    between atoms: _590  and  _592
REMARK  240  A    between atoms: _592  and  _593
REMARK  241  A    between atoms: _592  and  _595
REMARK  242  A    between atoms: _595  and  _596
REMARK  243  A    between atoms: _599  and  _601
REMARK  244  A    between atoms: _601  and  _602
REMARK  245  A    between atoms: _601  and  _604
REMARK  246  A    between atoms: _607  and  _609
REMARK  247  A    between atoms: _609  and  _610
REMARK  248  A    between atoms: _612  and  _614
REMARK  249  A    between atoms: _614  and  _615
REMARK                            x       y       z     vdW  Elec       q    Type
REMARK                         _______ _______ _______ _____ _____    ______ ____
ROOT
ATOM      1  NE  ARG A   1      18.496   8.887  15.058  0.00  0.00    -0.265 N 
ATOM      2  CZ  ARG A   1      18.993   9.696  15.993  0.00  0.00    +0.342 C 
ATOM      3  NH2 ARG A   1      18.719   9.491  17.279  0.00  0.00    -0.292 N 
ATOM      4 HH21 ARG A   1      19.111  10.127  18.002  0.00  0.00    +0.255 HD
ATOM      5 HH22 ARG A   1      18.113   8.694  17.561  0.00  0.00    +0.255 HD
ATOM      6  NH1 ARG A   1      19.770  10.713  15.637  0.00  0.00    -0.292 N 
ATOM      7 HH11 ARG A   1      20.161  11.348  16.362  0.00  0.00    +0.255 HD
ATOM      8 HH12 ARG A   1      19.988  10.875  14.633  0.00  0.00    +0.255 HD
ATOM      9  HE  ARG A   1      18.740   9.090  14.068  0.00  0.00    +0.259 HD
ENDROOT
BRANCH   1  10
ATOM     10  CD  ARG A   1      17.633   7.735  15.318  0.00  0.00    +0.174 C 
BRANCH  10  11
ATOM     11  CG  ARG A   1      16.213   8.119  15.748  0.00  0.00    +0.045 C 
BRANCH  11  12
ATOM     12  CB  ARG A   1      15.391   8.782  14.633  0.00  0.00    +0.029 C 
BRANCH  12  13
ATOM     13  CA  ARG A   1      13.879   8.762  14.900  0.00  0.00    +0.133 C 
BRANCH  13  14
ATOM     14  N   ARG A   1      13.173   9.443  13.842  0.00  0.00    -0.239 NA
ATOM     15  H   ARG A   1      13.699  10.074  13.204  0.00  0.00    +0.142 HD
ENDBRANCH  13  14
BRANCH  13  16
ATOM     16  C   ARG A   1      13.570   9.376  16.239  0.00  0.00    +0.224 C 
ATOM     17  O   ARG A   1      13.665  10.587  16.403  0.00  0.00    -0.287 OA
ENDBRANCH  13  16
ENDBRANCH  12  13
ENDBRANCH  11  12
ENDBRANCH  10  11
ENDBRANCH   1  10
TORSDOF 6
REMARK  Name = ../refined-set-2016/3ckp/3ckp_pocket.pdb
REMARK  249 active torsions:
REMARK  status: ('A' for Active; 'I' for Inactive)
REMARK    1  A    between atoms: _1  and  _3
REMARK    2  A    between atoms: _3  and  _4
REMARK    3  A    between atoms: _3  and  _6
REMARK    4  A    between atoms: _6  and  _7
REMARK    5  A    between atoms: _7  and  _8
REMARK    6  A    between atoms: _8  and  _9
REMARK    7  A    between atoms: _9  and  _10
REMARK    8  A    between atoms: _14  and  _16
REMARK    9  A    between atoms: _16  and  _17
REMARK   10  A    between atoms: _16  and  _19
REMARK   11  A    between atoms: _19  and  _20
REMARK   12  A    between atoms: _22  and  _24
REMARK   13  A    between atoms: _24  and  _25
REMARK   14  A    between atoms: _27  and  _29
REMARK   15  A    between atoms: _29  and  _30
REMARK   16  A    between atoms: _29  and  _32
REMARK   17  A    between atoms: _32  and  _33
REMARK   18  A    between atoms: _33  and  _34
REMARK   19  A    between atoms: _39  and  _41
REMARK   20  A    between atoms: _41  and  _42
REMARK   21  A    between atoms: _44  and  _46
REMARK   22  A    between atoms: _46  and  _47
REMARK   23  A    between atoms: _46  and  _49
REMARK   24  A    between atoms: _49  and  _50
REMARK   25  A    between atoms: _55  and  _56
REMARK   26  A    between atoms: _58  and  _60
REMARK   27  A    between atoms: _60  and  _61
REMARK   28  A    between atoms: _60  and  _63
REMARK   29  A    between atoms: _63  and  _64
REMARK   30  A    between atoms: _69  and  _70
REMARK   31  A    between atoms: _72  and  _74
REMARK   32  A    between atoms: _74  and  _75
REMARK   33  A    between atoms: _74  and  _77
REMARK   34  A    between atoms: _77  and  _78
REMARK   35  A    between atoms: _81  and  _83
REMARK   36  A    between atoms: _83  and  _84
REMARK   37  A    between atoms: _83  and  _86
REMARK   38  A    between atoms: _89  and  _91
REMARK   39  A    between atoms: _91  and  _92
REMARK   40  A    between atoms: _91  and  _94
REMARK   41  A    between atoms: _94  and  _95
REMARK   42  A    between atoms: _98  and  _100
REMARK   43  A    between atoms: _100  and  _101
REMARK   44  A    between atoms: _100  and  _103
REMARK   45  A    between atoms: _103  and  _104
REMARK   46  A    between atoms: _107  and  _109
REMARK   47  A    between atoms: _109  and  _110
REMARK   48  A    between atoms: _112  and  _114
REMARK   49  A    between atoms: _114  and  _115
REMARK   50  A    between atoms: _114  and  _117
REMARK   51  A    between atoms: _117  and  _118
REMARK   52  A    between atoms: _120  and  _122
REMARK   53  A    between atoms: _122  and  _123
REMARK   54  A    between atoms: _122  and  _125
REMARK   55  A    between atoms: _125  and  _126
REMARK   56  A    between atoms: _128  and  _130
REMARK   57  A    between atoms: _130  and  _131
REMARK   58  A    between atoms: _130  and  _133
REMARK   59  A    between atoms: _133  and  _134
REMARK   60  A    between atoms: _139  and  _141
REMARK   61  A    between atoms: _141  and  _142
REMARK   62  A    between atoms: _141  and  _144
REMARK   63  A    between atoms: _144  and  _145
REMARK   64  A    between atoms: _150  and  _151
REMARK   65  A    between atoms: _153  and  _155
REMARK   66  A    between atoms: _155  and  _156
REMARK   67  A    between atoms: _155  and  _158
REMARK   68  A    between atoms: _162  and  _163
REMARK   69  A    between atoms: _168  and  _170
REMARK   70  A    between atoms: _170  and  _171
REMARK   71  A    between atoms: _170  and  _173
REMARK   72  A    between atoms: _173  and  _174
REMARK   73  A    between atoms: _179  and  _180
REMARK   74  A    between atoms: _182  and  _184
REMARK   75  A    between atoms: _184  and  _185
REMARK   76  A    between atoms: _184  and  _187
REMARK   77  A    between atoms: _187  and  _188
REMARK   78  A    between atoms: _191  and  _193
REMARK   79  A    between atoms: _193  and  _194
REMARK   80  A    between atoms: _193  and  _196
REMARK   81  A    between atoms: _196  and  _197
REMARK   82  A    between atoms: _197  and  _198
REMARK   83  A    between atoms: _203  and  _205
REMARK   84  A    between atoms: _205  and  _206
REMARK   85  A    between atoms: _208  and  _210
REMARK   86  A    between atoms: _210  and  _211
REMARK   87  A    between atoms: _210  and  _213
REMARK   88  A    between atoms: _213  and  _214
REMARK   89  A    between atoms: _214  and  _215
REMARK   90  A    between atoms: _215  and  _216
REMARK   91  A    between atoms: _216  and  _217
REMARK   92  A    between atoms: _221  and  _223
REMARK   93  A    between atoms: _223  and  _224
REMARK   94  A    between atoms: _223  and  _226
REMARK   95  A    between atoms: _226  and  _227
REMARK   96  A    between atoms: _237  and  _239
REMARK   97  A    between atoms: _239  and  _240
REMARK   98  A    between atoms: _239  and  _242
REMARK   99  A    between atoms: _242  and  _243
REMARK  100  A    between atoms: _246  and  _248
REMARK  101  A    between atoms: _248  and  _249
REMARK  102  A    between atoms: _248  and  _251
REMARK  103  A    between atoms: _251  and  _252
REMARK  104  A    between atoms: _252  and  _253
REMARK  105  A    between atoms: _253  and  _254
REMARK  106  A    between atoms: _254  and  _255
REMARK  107  A    between atoms: _259  and  _261
REMARK  108  A    between atoms: _261  and  _262
REMARK  109  A    between atoms: _261  and  _264
REMARK  110  A    between atoms: _264  and  _265
REMARK  111  A    between atoms: _271  and  _273
REMARK  112  A    between atoms: _273  and  _274
REMARK  113  A    between atoms: _273  and  _276
REMARK  114  A    between atoms: _276  and  _277
REMARK  115  A    between atoms: _283  and  _285
REMARK  116  A    between atoms: _285  and  _286
REMARK  117  A    between atoms: _285  and  _288
REMARK  118  A    between atoms: _288  and  _289
REMARK  119  A    between atoms: _292  and  _294
REMARK  120  A    between atoms: _294  and  _295
REMARK  121  A    between atoms: _294  and  _297
REMARK  122  A    between atoms: _297  and  _298
REMARK  123  A    between atoms: _300  and  _302
REMARK  124  A    between atoms: _302  and  _303
REMARK  125  A    between atoms: _302  and  _305
REMARK  126  A    between atoms: _305  and  _306
REMARK  127  A    between atoms: _316  and  _318
REMARK  128  A    between atoms: _318  and  _319
REMARK  129  A    between atoms: _321  and  _323
REMARK  130  A    between atoms: _323  and  _324
REMARK  131  A    between atoms: _323  and  _326
REMARK  132  A    between atoms: _326  and  _327
REMARK  133  A    between atoms: _330  and  _332
REMARK  134  A    between atoms: _332  and  _333
REMARK  135  A    between atoms: _335  and  _337
REMARK  136  A    between atoms: _337  and  _338
REMARK  137  A    between atoms: _337  and  _340
REMARK  138  A    between atoms: _340  and  _341
REMARK  139  A    between atoms: _344  and  _346
REMARK  140  A    between atoms: _346  and  _347
REMARK  141  A    between atoms: _350  and  _352
REMARK  142  A    between atoms: _352  and  _353
REMARK  143  A    between atoms: _352  and  _355
REMARK  144  A    between atoms: _355  and  _356
REMARK  145  A    between atoms: _361  and  _362
REMARK  146  A    between atoms: _364  and  _366
REMARK  147  A    between atoms: _366  and  _367
REMARK  148  A    between atoms: _366  and  _369
REMARK  149  A    between atoms: _369  and  _370
REMARK  150  A    between atoms: _370  and  _371
REMARK  151  A    between atoms: _374  and  _376
REMARK  152  A    between atoms: _376  and  _377
REMARK  153  A    between atoms: _376  and  _379
REMARK  154  A    between atoms: _379  and  _380
REMARK  155  A    between atoms: _383  and  _385
REMARK  156  A    between atoms: _385  and  _386
REMARK  157  A    between atoms: _389  and  _391
REMARK  158  A    between atoms: _391  and  _392
REMARK  159  A    between atoms: _391  and  _394
REMARK  160  A    between atoms: _394  and  _395
REMARK  161  A    between atoms: _395  and  _396
REMARK  162  A    between atoms: _396  and  _397
REMARK  163  A    between atoms: _406  and  _408
REMARK  164  A    between atoms: _408  and  _409
REMARK  165  A    between atoms: _408  and  _411
REMARK  166  A    between atoms: _411  and  _412
REMARK  167  A    between atoms: _415  and  _417
REMARK  168  A    between atoms: _417  and  _418
REMARK  169  A    between atoms: _417  and  _420
REMARK  170  A    between atoms: _420  and  _421
REMARK  171  A    between atoms: _431  and  _433
REMARK  172  A    between atoms: _433  and  _434
REMARK  173  A    between atoms: _433  and  _436
REMARK  174  A    between atoms: _436  and  _437
REMARK  175  A    between atoms: _442  and  _443
REMARK  176  A    between atoms: _445  and  _447
REMARK  177  A    between atoms: _447  and  _448
REMARK  178  A    between atoms: _447  and  _450
REMARK  179  A    between atoms: _450  and  _451
REMARK  180  A    between atoms: _451  and  _452
REMARK  181  A    between atoms: _452  and  _453
REMARK  182  A    between atoms: _453  and  _454
REMARK  183  A    between atoms: _458  and  _460
REMARK  184  A    between atoms: _460  and  _461
REMARK  185  A    between atoms: _460  and  _463
REMARK  186  A    between atoms: _463  and  _464
REMARK  187  A    between atoms: _467  and  _469
REMARK  188  A    between atoms: _469  and  _470
REMARK  189  A    between atoms: _469  and  _472
REMARK  190  A    between atoms: _475  and  _477
REMARK  191  A    between atoms: _477  and  _478
REMARK  192  A    between atoms: _477  and  _480
REMARK  193  A    between atoms: _480  and  _481
REMARK  194  A    between atoms: _484  and  _486
REMARK  195  A    between atoms: _486  and  _487
REMARK  196  A    between atoms: _486  and  _489
REMARK  197  A    between atoms: _489  and  _490
REMARK  198  A    between atoms: _492  and  _494
REMARK  199  A    between atoms: _494  and  _495
REMARK  200  A    between atoms: _497  and  _499
REMARK  201  A    between atoms: _499  and  _500
REMARK  202  A    between atoms: _499  and  _502
REMARK  203  A    between atoms: _502  and  _503
REMARK  204  A    between atoms: _506  and  _508
REMARK  205  A    between atoms: _508  and  _509
REMARK  206  A    between atoms: _508  and  _511
REMARK  207  A    between atoms: _511  and  _512
REMARK  208  A    between atoms: _515  and  _517
REMARK  209  A    between atoms: _517  and  _518
REMARK  210  A    between atoms: _517  and  _520
REMARK  211  A    between atoms: _520  and  _521
REMARK  212  A    between atoms: _526  and  _528
REMARK  213  A    between atoms: _528  and  _529
REMARK  214  A    between atoms: _528  and  _531
REMARK  215  A    between atoms: _531  and  _532
REMARK  216  A    between atoms: _535  and  _537
REMARK  217  A    between atoms: _537  and  _538
REMARK  218  A    between atoms: _537  and  _540
REMARK  219  A    between atoms: _540  and  _541
REMARK  220  A    between atoms: _541  and  _542
REMARK  221  A    between atoms: _542  and  _543
REMARK  222  A    between atoms: _552  and  _554
REMARK  223  A    between atoms: _554  and  _555
REMARK  224  A    between atoms: _554  and  _557
REMARK  225  A    between atoms: _557  and  _558
REMARK  226  A    between atoms: _558  and  _559
REMARK  227  A    between atoms: _559  and  _560
REMARK  228  A    between atoms: _569  and  _571
REMARK  229  A    between atoms: _571  and  _572
REMARK  230  A    between atoms: _571  and  _574
REMARK  231  A    between atoms: _574  and  _575
REMARK  232  A    between atoms: _575  and  _576
REMARK  233  A    between atoms: _576  and  _577
REMARK  234  A    between atoms: _577  and  _578
REMARK  235  A    between atoms: _582  and  _584
REMARK  236  A    between atoms: _584  and  _585
REMARK  237  A    between atoms: _584  and  _587
REMARK  238  A    between atoms: _587  and  _588
REMARK  239  A    between atoms: _590  and  _592
REMARK  240  A    between atoms: _592  and  _593
REMARK  241  A    between atoms: _592  and  _595
REMARK  242  A    between atoms: _595  and  _596
REMARK  243  A    between atoms: _599  and  _601
REMARK  244  A    between atoms: _601  and  _602
REMARK  245  A    between atoms: _601  and  _604
REMARK  246  A    between atoms: _607  and  _609
REMARK  247  A    between atoms: _609  and  _610
REMARK  248  A    between atoms: _612  and  _614
REMARK  249  A    between atoms: _614  and  _615
REMARK                            x       y       z     vdW  Elec       q    Type
REMARK                         _______ _______ _______ _____ _____    ______ ____
ROOT
ATOM      1  CG  LYS A   1      16.631  13.280  14.944  0.00  0.00    -0.000 C 
ENDROOT
BRANCH   1   2
ATOM      2  CB  LYS A   1      15.682  14.323  15.486  0.00  0.00    +0.025 C 
BRANCH   2   3
ATOM      3  CA  LYS A   1      14.241  14.227  14.969  0.00  0.00    +0.133 C 
BRANCH   3   4
ATOM      4  N   LYS A   1      13.461  13.355  15.821  0.00  0.00    -0.239 NA
ATOM      5  H   LYS A   1      13.662  12.335  15.824  0.00  0.00    +0.142 HD
ENDBRANCH   3   4
BRANCH   3   6
ATOM      6  C   LYS A   1      14.190  13.634  13.549  0.00  0.00    +0.224 C 
ATOM      7  O   LYS A   1      14.165  12.420  13.376  0.00  0.00    -0.287 OA
ENDBRANCH   3   6
ENDBRANCH   2   3
ENDBRANCH   1   2
BRANCH   1   8
ATOM      8  CD  LYS A   1      17.960  13.948  14.560  0.00  0.00    -0.024 C 
BRANCH   8   9
ATOM      9  CE  LYS A   1      18.752  13.112  13.540  0.00  0.00    -0.086 C 
BRANCH   9  10
ATOM     10  NZ  LYS A   1      19.906  13.862  12.946  0.00  0.00    +0.380 N 
ATOM     11  HZ1 LYS A   1      20.561  14.145  13.703  0.00  0.00    -0.089 HD
ATOM     12  HZ2 LYS A   1      19.553  14.709  12.457  0.00  0.00    -0.089 HD
ATOM     13  HZ3 LYS A   1      20.403  13.251  12.267  0.00  0.00    -0.089 HD
ENDBRANCH   9  10
ENDBRANCH   8   9
ENDBRANCH   1   8
TORSDOF 7
REMARK  Name = ../refined-set-2016/3ckp/3ckp_pocket.pdb
REMARK  249 active torsions:
REMARK  status: ('A' for Active; 'I' for Inactive)
REMARK    1  A    between atoms: _1  and  _3
REMARK    2  A    between atoms: _3  and  _4
REMARK    3  A    between atoms: _3  and  _6
REMARK    4  A    between atoms: _6  and  _7
REMARK    5  A    between atoms: _7  and  _8
REMARK    6  A    between atoms: _8  and  _9
REMARK    7  A    between atoms: _9  and  _10
REMARK    8  A    between atoms: _14  and  _16
REMARK    9  A    between atoms: _16  and  _17
REMARK   10  A    between atoms: _16  and  _19
REMARK   11  A    between atoms: _19  and  _20
REMARK   12  A    between atoms: _22  and  _24
REMARK   13  A    between atoms: _24  and  _25
REMARK   14  A    between atoms: _27  and  _29
REMARK   15  A    between atoms: _29  and  _30
REMARK   16  A    between atoms: _29  and  _32
REMARK   17  A    between atoms: _32  and  _33
REMARK   18  A    between atoms: _33  and  _34
REMARK   19  A    between atoms: _39  and  _41
REMARK   20  A    between atoms: _41  and  _42
REMARK   21  A    between atoms: _44  and  _46
REMARK   22  A    between atoms: _46  and  _47
REMARK   23  A    between atoms: _46  and  _49
REMARK   24  A    between atoms: _49  and  _50
REMARK   25  A    between atoms: _55  and  _56
REMARK   26  A    between atoms: _58  and  _60
REMARK   27  A    between atoms: _60  and  _61
REMARK   28  A    between atoms: _60  and  _63
REMARK   29  A    between atoms: _63  and  _64
REMARK   30  A    between atoms: _69  and  _70
REMARK   31  A    between atoms: _72  and  _74
REMARK   32  A    between atoms: _74  and  _75
REMARK   33  A    between atoms: _74  and  _77
REMARK   34  A    between atoms: _77  and  _78
REMARK   35  A    between atoms: _81  and  _83
REMARK   36  A    between atoms: _83  and  _84
REMARK   37  A    between atoms: _83  and  _86
REMARK   38  A    between atoms: _89  and  _91
REMARK   39  A    between atoms: _91  and  _92
REMARK   40  A    between atoms: _91  and  _94
REMARK   41  A    between atoms: _94  and  _95
REMARK   42  A    between atoms: _98  and  _100
REMARK   43  A    between atoms: _100  and  _101
REMARK   44  A    between atoms: _100  and  _103
REMARK   45  A    between atoms: _103  and  _104
REMARK   46  A    between atoms: _107  and  _109
REMARK   47  A    between atoms: _109  and  _110
REMARK   48  A    between atoms: _112  and  _114
REMARK   49  A    between atoms: _114  and  _115
REMARK   50  A    between atoms: _114  and  _117
REMARK   51  A    between atoms: _117  and  _118
REMARK   52  A    between atoms: _120  and  _122
REMARK   53  A    between atoms: _122  and  _123
REMARK   54  A    between atoms: _122  and  _125
REMARK   55  A    between atoms: _125  and  _126
REMARK   56  A    between atoms: _128  and  _130
REMARK   57  A    between atoms: _130  and  _131
REMARK   58  A    between atoms: _130  and  _133
REMARK   59  A    between atoms: _133  and  _134
REMARK   60  A    between atoms: _139  and  _141
REMARK   61  A    between atoms: _141  and  _142
REMARK   62  A    between atoms: _141  and  _144
REMARK   63  A    between atoms: _144  and  _145
REMARK   64  A    between atoms: _150  and  _151
REMARK   65  A    between atoms: _153  and  _155
REMARK   66  A    between atoms: _155  and  _156
REMARK   67  A    between atoms: _155  and  _158
REMARK   68  A    between atoms: _162  and  _163
REMARK   69  A    between atoms: _168  and  _170
REMARK   70  A    between atoms: _170  and  _171
REMARK   71  A    between atoms: _170  and  _173
REMARK   72  A    between atoms: _173  and  _174
REMARK   73  A    between atoms: _179  and  _180
REMARK   74  A    between atoms: _182  and  _184
REMARK   75  A    between atoms: _184  and  _185
REMARK   76  A    between atoms: _184  and  _187
REMARK   77  A    between atoms: _187  and  _188
REMARK   78  A    between atoms: _191  and  _193
REMARK   79  A    between atoms: _193  and  _194
REMARK   80  A    between atoms: _193  and  _196
REMARK   81  A    between atoms: _196  and  _197
REMARK   82  A    between atoms: _197  and  _198
REMARK   83  A    between atoms: _203  and  _205
REMARK   84  A    between atoms: _205  and  _206
REMARK   85  A    between atoms: _208  and  _210
REMARK   86  A    between atoms: _210  and  _211
REMARK   87  A    between atoms: _210  and  _213
REMARK   88  A    between atoms: _213  and  _214
REMARK   89  A    between atoms: _214  and  _215
REMARK   90  A    between atoms: _215  and  _216
REMARK   91  A    between atoms: _216  and  _217
REMARK   92  A    between atoms: _221  and  _223
REMARK   93  A    between atoms: _223  and  _224
REMARK   94  A    between atoms: _223  and  _226
REMARK   95  A    between atoms: _226  and  _227
REMARK   96  A    between atoms: _237  and  _239
REMARK   97  A    between atoms: _239  and  _240
REMARK   98  A    between atoms: _239  and  _242
REMARK   99  A    between atoms: _242  and  _243
REMARK  100  A    between atoms: _246  and  _248
REMARK  101  A    between atoms: _248  and  _249
REMARK  102  A    between atoms: _248  and  _251
REMARK  103  A    between atoms: _251  and  _252
REMARK  104  A    between atoms: _252  and  _253
REMARK  105  A    between atoms: _253  and  _254
REMARK  106  A    between atoms: _254  and  _255
REMARK  107  A    between atoms: _259  and  _261
REMARK  108  A    between atoms: _261  and  _262
REMARK  109  A    between atoms: _261  and  _264
REMARK  110  A    between atoms: _264  and  _265
REMARK  111  A    between atoms: _271  and  _273
REMARK  112  A    between atoms: _273  and  _274
REMARK  113  A    between atoms: _273  and  _276
REMARK  114  A    between atoms: _276  and  _277
REMARK  115  A    between atoms: _283  and  _285
REMARK  116  A    between atoms: _285  and  _286
REMARK  117  A    between atoms: _285  and  _288
REMARK  118  A    between atoms: _288  and  _289
REMARK  119  A    between atoms: _292  and  _294
REMARK  120  A    between atoms: _294  and  _295
REMARK  121  A    between atoms: _294  and  _297
REMARK  122  A    between atoms: _297  and  _298
REMARK  123  A    between atoms: _300  and  _302
REMARK  124  A    between atoms: _302  and  _303
REMARK  125  A    between atoms: _302  and  _305
REMARK  126  A    between atoms: _305  and  _306
REMARK  127  A    between atoms: _316  and  _318
REMARK  128  A    between atoms: _318  and  _319
REMARK  129  A    between atoms: _321  and  _323
REMARK  130  A    between atoms: _323  and  _324
REMARK  131  A    between atoms: _323  and  _326
REMARK  132  A    between atoms: _326  and  _327
REMARK  133  A    between atoms: _330  and  _332
REMARK  134  A    between atoms: _332  and  _333
REMARK  135  A    between atoms: _335  and  _337
REMARK  136  A    between atoms: _337  and  _338
REMARK  137  A    between atoms: _337  and  _340
REMARK  138  A    between atoms: _340  and  _341
REMARK  139  A    between atoms: _344  and  _346
REMARK  140  A    between atoms: _346  and  _347
REMARK  141  A    between atoms: _350  and  _352
REMARK  142  A    between atoms: _352  and  _353
REMARK  143  A    between atoms: _352  and  _355
REMARK  144  A    between atoms: _355  and  _356
REMARK  145  A    between atoms: _361  and  _362
REMARK  146  A    between atoms: _364  and  _366
REMARK  147  A    between atoms: _366  and  _367
REMARK  148  A    between atoms: _366  and  _369
REMARK  149  A    between atoms: _369  and  _370
REMARK  150  A    between atoms: _370  and  _371
REMARK  151  A    between atoms: _374  and  _376
REMARK  152  A    between atoms: _376  and  _377
REMARK  153  A    between atoms: _376  and  _379
REMARK  154  A    between atoms: _379  and  _380
REMARK  155  A    between atoms: _383  and  _385
REMARK  156  A    between atoms: _385  and  _386
REMARK  157  A    between atoms: _389  and  _391
REMARK  158  A    between atoms: _391  and  _392
REMARK  159  A    between atoms: _391  and  _394
REMARK  160  A    between atoms: _394  and  _395
REMARK  161  A    between atoms: _395  and  _396
REMARK  162  A    between atoms: _396  and  _397
REMARK  163  A    between atoms: _406  and  _408
REMARK  164  A    between atoms: _408  and  _409
REMARK  165  A    between atoms: _408  and  _411
REMARK  166  A    between atoms: _411  and  _412
REMARK  167  A    between atoms: _415  and  _417
REMARK  168  A    between atoms: _417  and  _418
REMARK  169  A    between atoms: _417  and  _420
REMARK  170  A    between atoms: _420  and  _421
REMARK  171  A    between atoms: _431  and  _433
REMARK  172  A    between atoms: _433  and  _434
REMARK  173  A    between atoms: _433  and  _436
REMARK  174  A    between atoms: _436  and  _437
REMARK  175  A    between atoms: _442  and  _443
REMARK  176  A    between atoms: _445  and  _447
REMARK  177  A    between atoms: _447  and  _448
REMARK  178  A    between atoms: _447  and  _450
REMARK  179  A    between atoms: _450  and  _451
REMARK  180  A    between atoms: _451  and  _452
REMARK  181  A    between atoms: _452  and  _453
REMARK  182  A    between atoms: _453  and  _454
REMARK  183  A    between atoms: _458  and  _460
REMARK  184  A    between atoms: _460  and  _461
REMARK  185  A    between atoms: _460  and  _463
REMARK  186  A    between atoms: _463  and  _464
REMARK  187  A    between atoms: _467  and  _469
REMARK  188  A    between atoms: _469  and  _470
REMARK  189  A    between atoms: _469  and  _472
REMARK  190  A    between atoms: _475  and  _477
REMARK  191  A    between atoms: _477  and  _478
REMARK  192  A    between atoms: _477  and  _480
REMARK  193  A    between atoms: _480  and  _481
REMARK  194  A    between atoms: _484  and  _486
REMARK  195  A    between atoms: _486  and  _487
REMARK  196  A    between atoms: _486  and  _489
REMARK  197  A    between atoms: _489  and  _490
REMARK  198  A    between atoms: _492  and  _494
REMARK  199  A    between atoms: _494  and  _495
REMARK  200  A    between atoms: _497  and  _499
REMARK  201  A    between atoms: _499  and  _500
REMARK  202  A    between atoms: _499  and  _502
REMARK  203  A    between atoms: _502  and  _503
REMARK  204  A    between atoms: _506  and  _508
REMARK  205  A    between atoms: _508  and  _509
REMARK  206  A    between atoms: _508  and  _511
REMARK  207  A    between atoms: _511  and  _512
REMARK  208  A    between atoms: _515  and  _517
REMARK  209  A    between atoms: _517  and  _518
REMARK  210  A    between atoms: _517  and  _520
REMARK  211  A    between atoms: _520  and  _521
REMARK  212  A    between atoms: _526  and  _528
REMARK  213  A    between atoms: _528  and  _529
REMARK  214  A    between atoms: _528  and  _531
REMARK  215  A    between atoms: _531  and  _532
REMARK  216  A    between atoms: _535  and  _537
REMARK  217  A    between atoms: _537  and  _538
REMARK  218  A    between atoms: _537  and  _540
REMARK  219  A    between atoms: _540  and  _541
REMARK  220  A    between atoms: _541  and  _542
REMARK  221  A    between atoms: _542  and  _543
REMARK  222  A    between atoms: _552  and  _554
REMARK  223  A    between atoms: _554  and  _555
REMARK  224  A    between atoms: _554  and  _557
REMARK  225  A    between atoms: _557  and  _558
REMARK  226  A    between atoms: _558  and  _559
REMARK  227  A    between atoms: _559  and  _560
REMARK  228  A    between atoms: _569  and  _571
REMARK  229  A    between atoms: _571  and  _572
REMARK  230  A    between atoms: _571  and  _574
REMARK  231  A    between atoms: _574  and  _575
REMARK  232  A    between atoms: _575  and  _576
REMARK  233  A    between atoms: _576  and  _577
REMARK  234  A    between atoms: _577  and  _578
REMARK  235  A    between atoms: _582  and  _584
REMARK  236  A    between atoms: _584  and  _585
REMARK  237  A    between atoms: _584  and  _587
REMARK  238  A    between atoms: _587  and  _588
REMARK  239  A    between atoms: _590  and  _592
REMARK  240  A    between atoms: _592  and  _593
REMARK  241  A    between atoms: _592  and  _595
REMARK  242  A    between atoms: _595  and  _596
REMARK  243  A    between atoms: _599  and  _601
REMARK  244  A    between atoms: _601  and  _602
REMARK  245  A    between atoms: _601  and  _604
REMARK  246  A    between atoms: _607  and  _609
REMARK  247  A    between atoms: _609  and  _610
REMARK  248  A    between atoms: _612  and  _614
REMARK  249  A    between atoms: _614  and  _615
REMARK                            x       y       z     vdW  Elec       q    Type
REMARK                         _______ _______ _______ _____ _____    ______ ____
ROOT
ATOM      1  CA  SER A   1      19.783  14.286   5.864  0.00  0.00    +0.163 C 
ENDROOT
BRANCH   1   2
ATOM      2  N   SER A   1      18.898  13.144   6.043  0.00  0.00    -0.237 NA
ATOM      3  H   SER A   1      19.296  12.190   6.157  0.00  0.00    +0.142 HD
ENDBRANCH   1   2
BRANCH   1   4
ATOM      4  C   SER A   1      20.402  14.376   4.486  0.00  0.00    +0.227 C 
ATOM      5  O   SER A   1      20.329  13.428   3.705  0.00  0.00    -0.287 OA
ENDBRANCH   1   4
BRANCH   1   6
ATOM      6  CB  SER A   1      20.875  14.259   6.932  0.00  0.00    +0.162 C 
BRANCH   6   7
ATOM      7  OG  SER A   1      21.508  12.994   6.983  0.00  0.00    -0.380 OA
ATOM      8  H   SER A   1      22.209  13.005   7.682  0.00  0.00    +0.211 HD
ENDBRANCH   6   7
ENDBRANCH   1   6
TORSDOF 4
REMARK  Name = ../refined-set-2016/3ckp/3ckp_pocket.pdb
REMARK  249 active torsions:
REMARK  status: ('A' for Active; 'I' for Inactive)
REMARK    1  A    between atoms: _1  and  _3
REMARK    2  A    between atoms: _3  and  _4
REMARK    3  A    between atoms: _3  and  _6
REMARK    4  A    between atoms: _6  and  _7
REMARK    5  A    between atoms: _7  and  _8
REMARK    6  A    between atoms: _8  and  _9
REMARK    7  A    between atoms: _9  and  _10
REMARK    8  A    between atoms: _14  and  _16
REMARK    9  A    between atoms: _16  and  _17
REMARK   10  A    between atoms: _16  and  _19
REMARK   11  A    between atoms: _19  and  _20
REMARK   12  A    between atoms: _22  and  _24
REMARK   13  A    between atoms: _24  and  _25
REMARK   14  A    between atoms: _27  and  _29
REMARK   15  A    between atoms: _29  and  _30
REMARK   16  A    between atoms: _29  and  _32
REMARK   17  A    between atoms: _32  and  _33
REMARK   18  A    between atoms: _33  and  _34
REMARK   19  A    between atoms: _39  and  _41
REMARK   20  A    between atoms: _41  and  _42
REMARK   21  A    between atoms: _44  and  _46
REMARK   22  A    between atoms: _46  and  _47
REMARK   23  A    between atoms: _46  and  _49
REMARK   24  A    between atoms: _49  and  _50
REMARK   25  A    between atoms: _55  and  _56
REMARK   26  A    between atoms: _58  and  _60
REMARK   27  A    between atoms: _60  and  _61
REMARK   28  A    between atoms: _60  and  _63
REMARK   29  A    between atoms: _63  and  _64
REMARK   30  A    between atoms: _69  and  _70
REMARK   31  A    between atoms: _72  and  _74
REMARK   32  A    between atoms: _74  and  _75
REMARK   33  A    between atoms: _74  and  _77
REMARK   34  A    between atoms: _77  and  _78
REMARK   35  A    between atoms: _81  and  _83
REMARK   36  A    between atoms: _83  and  _84
REMARK   37  A    between atoms: _83  and  _86
REMARK   38  A    between atoms: _89  and  _91
REMARK   39  A    between atoms: _91  and  _92
REMARK   40  A    between atoms: _91  and  _94
REMARK   41  A    between atoms: _94  and  _95
REMARK   42  A    between atoms: _98  and  _100
REMARK   43  A    between atoms: _100  and  _101
REMARK   44  A    between atoms: _100  and  _103
REMARK   45  A    between atoms: _103  and  _104
REMARK   46  A    between atoms: _107  and  _109
REMARK   47  A    between atoms: _109  and  _110
REMARK   48  A    between atoms: _112  and  _114
REMARK   49  A    between atoms: _114  and  _115
REMARK   50  A    between atoms: _114  and  _117
REMARK   51  A    between atoms: _117  and  _118
REMARK   52  A    between atoms: _120  and  _122
REMARK   53  A    between atoms: _122  and  _123
REMARK   54  A    between atoms: _122  and  _125
REMARK   55  A    between atoms: _125  and  _126
REMARK   56  A    between atoms: _128  and  _130
REMARK   57  A    between atoms: _130  and  _131
REMARK   58  A    between atoms: _130  and  _133
REMARK   59  A    between atoms: _133  and  _134
REMARK   60  A    between atoms: _139  and  _141
REMARK   61  A    between atoms: _141  and  _142
REMARK   62  A    between atoms: _141  and  _144
REMARK   63  A    between atoms: _144  and  _145
REMARK   64  A    between atoms: _150  and  _151
REMARK   65  A    between atoms: _153  and  _155
REMARK   66  A    between atoms: _155  and  _156
REMARK   67  A    between atoms: _155  and  _158
REMARK   68  A    between atoms: _162  and  _163
REMARK   69  A    between atoms: _168  and  _170
REMARK   70  A    between atoms: _170  and  _171
REMARK   71  A    between atoms: _170  and  _173
REMARK   72  A    between atoms: _173  and  _174
REMARK   73  A    between atoms: _179  and  _180
REMARK   74  A    between atoms: _182  and  _184
REMARK   75  A    between atoms: _184  and  _185
REMARK   76  A    between atoms: _184  and  _187
REMARK   77  A    between atoms: _187  and  _188
REMARK   78  A    between atoms: _191  and  _193
REMARK   79  A    between atoms: _193  and  _194
REMARK   80  A    between atoms: _193  and  _196
REMARK   81  A    between atoms: _196  and  _197
REMARK   82  A    between atoms: _197  and  _198
REMARK   83  A    between atoms: _203  and  _205
REMARK   84  A    between atoms: _205  and  _206
REMARK   85  A    between atoms: _208  and  _210
REMARK   86  A    between atoms: _210  and  _211
REMARK   87  A    between atoms: _210  and  _213
REMARK   88  A    between atoms: _213  and  _214
REMARK   89  A    between atoms: _214  and  _215
REMARK   90  A    between atoms: _215  and  _216
REMARK   91  A    between atoms: _216  and  _217
REMARK   92  A    between atoms: _221  and  _223
REMARK   93  A    between atoms: _223  and  _224
REMARK   94  A    between atoms: _223  and  _226
REMARK   95  A    between atoms: _226  and  _227
REMARK   96  A    between atoms: _237  and  _239
REMARK   97  A    between atoms: _239  and  _240
REMARK   98  A    between atoms: _239  and  _242
REMARK   99  A    between atoms: _242  and  _243
REMARK  100  A    between atoms: _246  and  _248
REMARK  101  A    between atoms: _248  and  _249
REMARK  102  A    between atoms: _248  and  _251
REMARK  103  A    between atoms: _251  and  _252
REMARK  104  A    between atoms: _252  and  _253
REMARK  105  A    between atoms: _253  and  _254
REMARK  106  A    between atoms: _254  and  _255
REMARK  107  A    between atoms: _259  and  _261
REMARK  108  A    between atoms: _261  and  _262
REMARK  109  A    between atoms: _261  and  _264
REMARK  110  A    between atoms: _264  and  _265
REMARK  111  A    between atoms: _271  and  _273
REMARK  112  A    between atoms: _273  and  _274
REMARK  113  A    between atoms: _273  and  _276
REMARK  114  A    between atoms: _276  and  _277
REMARK  115  A    between atoms: _283  and  _285
REMARK  116  A    between atoms: _285  and  _286
REMARK  117  A    between atoms: _285  and  _288
REMARK  118  A    between atoms: _288  and  _289
REMARK  119  A    between atoms: _292  and  _294
REMARK  120  A    between atoms: _294  and  _295
REMARK  121  A    between atoms: _294  and  _297
REMARK  122  A    between atoms: _297  and  _298
REMARK  123  A    between atoms: _300  and  _302
REMARK  124  A    between atoms: _302  and  _303
REMARK  125  A    between atoms: _302  and  _305
REMARK  126  A    between atoms: _305  and  _306
REMARK  127  A    between atoms: _316  and  _318
REMARK  128  A    between atoms: _318  and  _319
REMARK  129  A    between atoms: _321  and  _323
REMARK  130  A    between atoms: _323  and  _324
REMARK  131  A    between atoms: _323  and  _326
REMARK  132  A    between atoms: _326  and  _327
REMARK  133  A    between atoms: _330  and  _332
REMARK  134  A    between atoms: _332  and  _333
REMARK  135  A    between atoms: _335  and  _337
REMARK  136  A    between atoms: _337  and  _338
REMARK  137  A    between atoms: _337  and  _340
REMARK  138  A    between atoms: _340  and  _341
REMARK  139  A    between atoms: _344  and  _346
REMARK  140  A    between atoms: _346  and  _347
REMARK  141  A    between atoms: _350  and  _352
REMARK  142  A    between atoms: _352  and  _353
REMARK  143  A    between atoms: _352  and  _355
REMARK  144  A    between atoms: _355  and  _356
REMARK  145  A    between atoms: _361  and  _362
REMARK  146  A    between atoms: _364  and  _366
REMARK  147  A    between atoms: _366  and  _367
REMARK  148  A    between atoms: _366  and  _369
REMARK  149  A    between atoms: _369  and  _370
REMARK  150  A    between atoms: _370  and  _371
REMARK  151  A    between atoms: _374  and  _376
REMARK  152  A    between atoms: _376  and  _377
REMARK  153  A    between atoms: _376  and  _379
REMARK  154  A    between atoms: _379  and  _380
REMARK  155  A    between atoms: _383  and  _385
REMARK  156  A    between atoms: _385  and  _386
REMARK  157  A    between atoms: _389  and  _391
REMARK  158  A    between atoms: _391  and  _392
REMARK  159  A    between atoms: _391  and  _394
REMARK  160  A    between atoms: _394  and  _395
REMARK  161  A    between atoms: _395  and  _396
REMARK  162  A    between atoms: _396  and  _397
REMARK  163  A    between atoms: _406  and  _408
REMARK  164  A    between atoms: _408  and  _409
REMARK  165  A    between atoms: _408  and  _411
REMARK  166  A    between atoms: _411  and  _412
REMARK  167  A    between atoms: _415  and  _417
REMARK  168  A    between atoms: _417  and  _418
REMARK  169  A    between atoms: _417  and  _420
REMARK  170  A    between atoms: _420  and  _421
REMARK  171  A    between atoms: _431  and  _433
REMARK  172  A    between atoms: _433  and  _434
REMARK  173  A    between atoms: _433  and  _436
REMARK  174  A    between atoms: _436  and  _437
REMARK  175  A    between atoms: _442  and  _443
REMARK  176  A    between atoms: _445  and  _447
REMARK  177  A    between atoms: _447  and  _448
REMARK  178  A    between atoms: _447  and  _450
REMARK  179  A    between atoms: _450  and  _451
REMARK  180  A    between atoms: _451  and  _452
REMARK  181  A    between atoms: _452  and  _453
REMARK  182  A    between atoms: _453  and  _454
REMARK  183  A    between atoms: _458  and  _460
REMARK  184  A    between atoms: _460  and  _461
REMARK  185  A    between atoms: _460  and  _463
REMARK  186  A    between atoms: _463  and  _464
REMARK  187  A    between atoms: _467  and  _469
REMARK  188  A    between atoms: _469  and  _470
REMARK  189  A    between atoms: _469  and  _472
REMARK  190  A    between atoms: _475  and  _477
REMARK  191  A    between atoms: _477  and  _478
REMARK  192  A    between atoms: _477  and  _480
REMARK  193  A    between atoms: _480  and  _481
REMARK  194  A    between atoms: _484  and  _486
REMARK  195  A    between atoms: _486  and  _487
REMARK  196  A    between atoms: _486  and  _489
REMARK  197  A    between atoms: _489  and  _490
REMARK  198  A    between atoms: _492  and  _494
REMARK  199  A    between atoms: _494  and  _495
REMARK  200  A    between atoms: _497  and  _499
REMARK  201  A    between atoms: _499  and  _500
REMARK  202  A    between atoms: _499  and  _502
REMARK  203  A    between atoms: _502  and  _503
REMARK  204  A    between atoms: _506  and  _508
REMARK  205  A    between atoms: _508  and  _509
REMARK  206  A    between atoms: _508  and  _511
REMARK  207  A    between atoms: _511  and  _512
REMARK  208  A    between atoms: _515  and  _517
REMARK  209  A    between atoms: _517  and  _518
REMARK  210  A    between atoms: _517  and  _520
REMARK  211  A    between atoms: _520  and  _521
REMARK  212  A    between atoms: _526  and  _528
REMARK  213  A    between atoms: _528  and  _529
REMARK  214  A    between atoms: _528  and  _531
REMARK  215  A    between atoms: _531  and  _532
REMARK  216  A    between atoms: _535  and  _537
REMARK  217  A    between atoms: _537  and  _538
REMARK  218  A    between atoms: _537  and  _540
REMARK  219  A    between atoms: _540  and  _541
REMARK  220  A    between atoms: _541  and  _542
REMARK  221  A    between atoms: _542  and  _543
REMARK  222  A    between atoms: _552  and  _554
REMARK  223  A    between atoms: _554  and  _555
REMARK  224  A    between atoms: _554  and  _557
REMARK  225  A    between atoms: _557  and  _558
REMARK  226  A    between atoms: _558  and  _559
REMARK  227  A    between atoms: _559  and  _560
REMARK  228  A    between atoms: _569  and  _571
REMARK  229  A    between atoms: _571  and  _572
REMARK  230  A    between atoms: _571  and  _574
REMARK  231  A    between atoms: _574  and  _575
REMARK  232  A    between atoms: _575  and  _576
REMARK  233  A    between atoms: _576  and  _577
REMARK  234  A    between atoms: _577  and  _578
REMARK  235  A    between atoms: _582  and  _584
REMARK  236  A    between atoms: _584  and  _585
REMARK  237  A    between atoms: _584  and  _587
REMARK  238  A    between atoms: _587  and  _588
REMARK  239  A    between atoms: _590  and  _592
REMARK  240  A    between atoms: _592  and  _593
REMARK  241  A    between atoms: _592  and  _595
REMARK  242  A    between atoms: _595  and  _596
REMARK  243  A    between atoms: _599  and  _601
REMARK  244  A    between atoms: _601  and  _602
REMARK  245  A    between atoms: _601  and  _604
REMARK  246  A    between atoms: _607  and  _609
REMARK  247  A    between atoms: _609  and  _610
REMARK  248  A    between atoms: _612  and  _614
REMARK  249  A    between atoms: _614  and  _615
REMARK                            x       y       z     vdW  Elec       q    Type
REMARK                         _______ _______ _______ _____ _____    ______ ____
ROOT
ATOM      1  CA  THR A   1      28.882  11.443  -1.239  0.00  0.00    +0.160 C 
ENDROOT
BRANCH   1   2
ATOM      2  N   THR A   1      28.257  12.641  -0.689  0.00  0.00    -0.237 NA
ATOM      3  H   THR A   1      27.715  12.581   0.197  0.00  0.00    +0.142 HD
ENDBRANCH   1   2
BRANCH   1   4
ATOM      4  CB  THR A   1      29.861  10.821  -0.231  0.00  0.00    +0.134 C 
ATOM      5  CG2 THR A   1      31.283  11.340  -0.485  0.00  0.00    +0.034 C 
BRANCH   4   6
ATOM      6  OG1 THR A   1      29.430  11.133   1.104  0.00  0.00    -0.383 OA
ATOM      7  HG1 THR A   1      30.060  10.733   1.755  0.00  0.00    +0.210 HD
ENDBRANCH   4   6
ENDBRANCH   1   4
BRANCH   1   8
ATOM      8  C   THR A   1      27.964  10.334  -1.722  0.00  0.00    +0.227 C 
ATOM      9  O   THR A   1      28.298   9.160  -1.591  0.00  0.00    -0.287 OA
ENDBRANCH   1   8
TORSDOF 4
REMARK  Name = ../refined-set-2016/3ckp/3ckp_pocket.pdb
REMARK  249 active torsions:
REMARK  status: ('A' for Active; 'I' for Inactive)
REMARK    1  A    between atoms: _1  and  _3
REMARK    2  A    between atoms: _3  and  _4
REMARK    3  A    between atoms: _3  and  _6
REMARK    4  A    between atoms: _6  and  _7
REMARK    5  A    between atoms: _7  and  _8
REMARK    6  A    between atoms: _8  and  _9
REMARK    7  A    between atoms: _9  and  _10
REMARK    8  A    between atoms: _14  and  _16
REMARK    9  A    between atoms: _16  and  _17
REMARK   10  A    between atoms: _16  and  _19
REMARK   11  A    between atoms: _19  and  _20
REMARK   12  A    between atoms: _22  and  _24
REMARK   13  A    between atoms: _24  and  _25
REMARK   14  A    between atoms: _27  and  _29
REMARK   15  A    between atoms: _29  and  _30
REMARK   16  A    between atoms: _29  and  _32
REMARK   17  A    between atoms: _32  and  _33
REMARK   18  A    between atoms: _33  and  _34
REMARK   19  A    between atoms: _39  and  _41
REMARK   20  A    between atoms: _41  and  _42
REMARK   21  A    between atoms: _44  and  _46
REMARK   22  A    between atoms: _46  and  _47
REMARK   23  A    between atoms: _46  and  _49
REMARK   24  A    between atoms: _49  and  _50
REMARK   25  A    between atoms: _55  and  _56
REMARK   26  A    between atoms: _58  and  _60
REMARK   27  A    between atoms: _60  and  _61
REMARK   28  A    between atoms: _60  and  _63
REMARK   29  A    between atoms: _63  and  _64
REMARK   30  A    between atoms: _69  and  _70
REMARK   31  A    between atoms: _72  and  _74
REMARK   32  A    between atoms: _74  and  _75
REMARK   33  A    between atoms: _74  and  _77
REMARK   34  A    between atoms: _77  and  _78
REMARK   35  A    between atoms: _81  and  _83
REMARK   36  A    between atoms: _83  and  _84
REMARK   37  A    between atoms: _83  and  _86
REMARK   38  A    between atoms: _89  and  _91
REMARK   39  A    between atoms: _91  and  _92
REMARK   40  A    between atoms: _91  and  _94
REMARK   41  A    between atoms: _94  and  _95
REMARK   42  A    between atoms: _98  and  _100
REMARK   43  A    between atoms: _100  and  _101
REMARK   44  A    between atoms: _100  and  _103
REMARK   45  A    between atoms: _103  and  _104
REMARK   46  A    between atoms: _107  and  _109
REMARK   47  A    between atoms: _109  and  _110
REMARK   48  A    between atoms: _112  and  _114
REMARK   49  A    between atoms: _114  and  _115
REMARK   50  A    between atoms: _114  and  _117
REMARK   51  A    between atoms: _117  and  _118
REMARK   52  A    between atoms: _120  and  _122
REMARK   53  A    between atoms: _122  and  _123
REMARK   54  A    between atoms: _122  and  _125
REMARK   55  A    between atoms: _125  and  _126
REMARK   56  A    between atoms: _128  and  _130
REMARK   57  A    between atoms: _130  and  _131
REMARK   58  A    between atoms: _130  and  _133
REMARK   59  A    between atoms: _133  and  _134
REMARK   60  A    between atoms: _139  and  _141
REMARK   61  A    between atoms: _141  and  _142
REMARK   62  A    between atoms: _141  and  _144
REMARK   63  A    between atoms: _144  and  _145
REMARK   64  A    between atoms: _150  and  _151
REMARK   65  A    between atoms: _153  and  _155
REMARK   66  A    between atoms: _155  and  _156
REMARK   67  A    between atoms: _155  and  _158
REMARK   68  A    between atoms: _162  and  _163
REMARK   69  A    between atoms: _168  and  _170
REMARK   70  A    between atoms: _170  and  _171
REMARK   71  A    between atoms: _170  and  _173
REMARK   72  A    between atoms: _173  and  _174
REMARK   73  A    between atoms: _179  and  _180
REMARK   74  A    between atoms: _182  and  _184
REMARK   75  A    between atoms: _184  and  _185
REMARK   76  A    between atoms: _184  and  _187
REMARK   77  A    between atoms: _187  and  _188
REMARK   78  A    between atoms: _191  and  _193
REMARK   79  A    between atoms: _193  and  _194
REMARK   80  A    between atoms: _193  and  _196
REMARK   81  A    between atoms: _196  and  _197
REMARK   82  A    between atoms: _197  and  _198
REMARK   83  A    between atoms: _203  and  _205
REMARK   84  A    between atoms: _205  and  _206
REMARK   85  A    between atoms: _208  and  _210
REMARK   86  A    between atoms: _210  and  _211
REMARK   87  A    between atoms: _210  and  _213
REMARK   88  A    between atoms: _213  and  _214
REMARK   89  A    between atoms: _214  and  _215
REMARK   90  A    between atoms: _215  and  _216
REMARK   91  A    between atoms: _216  and  _217
REMARK   92  A    between atoms: _221  and  _223
REMARK   93  A    between atoms: _223  and  _224
REMARK   94  A    between atoms: _223  and  _226
REMARK   95  A    between atoms: _226  and  _227
REMARK   96  A    between atoms: _237  and  _239
REMARK   97  A    between atoms: _239  and  _240
REMARK   98  A    between atoms: _239  and  _242
REMARK   99  A    between atoms: _242  and  _243
REMARK  100  A    between atoms: _246  and  _248
REMARK  101  A    between atoms: _248  and  _249
REMARK  102  A    between atoms: _248  and  _251
REMARK  103  A    between atoms: _251  and  _252
REMARK  104  A    between atoms: _252  and  _253
REMARK  105  A    between atoms: _253  and  _254
REMARK  106  A    between atoms: _254  and  _255
REMARK  107  A    between atoms: _259  and  _261
REMARK  108  A    between atoms: _261  and  _262
REMARK  109  A    between atoms: _261  and  _264
REMARK  110  A    between atoms: _264  and  _265
REMARK  111  A    between atoms: _271  and  _273
REMARK  112  A    between atoms: _273  and  _274
REMARK  113  A    between atoms: _273  and  _276
REMARK  114  A    between atoms: _276  and  _277
REMARK  115  A    between atoms: _283  and  _285
REMARK  116  A    between atoms: _285  and  _286
REMARK  117  A    between atoms: _285  and  _288
REMARK  118  A    between atoms: _288  and  _289
REMARK  119  A    between atoms: _292  and  _294
REMARK  120  A    between atoms: _294  and  _295
REMARK  121  A    between atoms: _294  and  _297
REMARK  122  A    between atoms: _297  and  _298
REMARK  123  A    between atoms: _300  and  _302
REMARK  124  A    between atoms: _302  and  _303
REMARK  125  A    between atoms: _302  and  _305
REMARK  126  A    between atoms: _305  and  _306
REMARK  127  A    between atoms: _316  and  _318
REMARK  128  A    between atoms: _318  and  _319
REMARK  129  A    between atoms: _321  and  _323
REMARK  130  A    between atoms: _323  and  _324
REMARK  131  A    between atoms: _323  and  _326
REMARK  132  A    between atoms: _326  and  _327
REMARK  133  A    between atoms: _330  and  _332
REMARK  134  A    between atoms: _332  and  _333
REMARK  135  A    between atoms: _335  and  _337
REMARK  136  A    between atoms: _337  and  _338
REMARK  137  A    between atoms: _337  and  _340
REMARK  138  A    between atoms: _340  and  _341
REMARK  139  A    between atoms: _344  and  _346
REMARK  140  A    between atoms: _346  and  _347
REMARK  141  A    between atoms: _350  and  _352
REMARK  142  A    between atoms: _352  and  _353
REMARK  143  A    between atoms: _352  and  _355
REMARK  144  A    between atoms: _355  and  _356
REMARK  145  A    between atoms: _361  and  _362
REMARK  146  A    between atoms: _364  and  _366
REMARK  147  A    between atoms: _366  and  _367
REMARK  148  A    between atoms: _366  and  _369
REMARK  149  A    between atoms: _369  and  _370
REMARK  150  A    between atoms: _370  and  _371
REMARK  151  A    between atoms: _374  and  _376
REMARK  152  A    between atoms: _376  and  _377
REMARK  153  A    between atoms: _376  and  _379
REMARK  154  A    between atoms: _379  and  _380
REMARK  155  A    between atoms: _383  and  _385
REMARK  156  A    between atoms: _385  and  _386
REMARK  157  A    between atoms: _389  and  _391
REMARK  158  A    between atoms: _391  and  _392
REMARK  159  A    between atoms: _391  and  _394
REMARK  160  A    between atoms: _394  and  _395
REMARK  161  A    between atoms: _395  and  _396
REMARK  162  A    between atoms: _396  and  _397
REMARK  163  A    between atoms: _406  and  _408
REMARK  164  A    between atoms: _408  and  _409
REMARK  165  A    between atoms: _408  and  _411
REMARK  166  A    between atoms: _411  and  _412
REMARK  167  A    between atoms: _415  and  _417
REMARK  168  A    between atoms: _417  and  _418
REMARK  169  A    between atoms: _417  and  _420
REMARK  170  A    between atoms: _420  and  _421
REMARK  171  A    between atoms: _431  and  _433
REMARK  172  A    between atoms: _433  and  _434
REMARK  173  A    between atoms: _433  and  _436
REMARK  174  A    between atoms: _436  and  _437
REMARK  175  A    between atoms: _442  and  _443
REMARK  176  A    between atoms: _445  and  _447
REMARK  177  A    between atoms: _447  and  _448
REMARK  178  A    between atoms: _447  and  _450
REMARK  179  A    between atoms: _450  and  _451
REMARK  180  A    between atoms: _451  and  _452
REMARK  181  A    between atoms: _452  and  _453
REMARK  182  A    between atoms: _453  and  _454
REMARK  183  A    between atoms: _458  and  _460
REMARK  184  A    between atoms: _460  and  _461
REMARK  185  A    between atoms: _460  and  _463
REMARK  186  A    between atoms: _463  and  _464
REMARK  187  A    between atoms: _467  and  _469
REMARK  188  A    between atoms: _469  and  _470
REMARK  189  A    between atoms: _469  and  _472
REMARK  190  A    between atoms: _475  and  _477
REMARK  191  A    between atoms: _477  and  _478
REMARK  192  A    between atoms: _477  and  _480
REMARK  193  A    between atoms: _480  and  _481
REMARK  194  A    between atoms: _484  and  _486
REMARK  195  A    between atoms: _486  and  _487
REMARK  196  A    between atoms: _486  and  _489
REMARK  197  A    between atoms: _489  and  _490
REMARK  198  A    between atoms: _492  and  _494
REMARK  199  A    between atoms: _494  and  _495
REMARK  200  A    between atoms: _497  and  _499
REMARK  201  A    between atoms: _499  and  _500
REMARK  202  A    between atoms: _499  and  _502
REMARK  203  A    between atoms: _502  and  _503
REMARK  204  A    between atoms: _506  and  _508
REMARK  205  A    between atoms: _508  and  _509
REMARK  206  A    between atoms: _508  and  _511
REMARK  207  A    between atoms: _511  and  _512
REMARK  208  A    between atoms: _515  and  _517
REMARK  209  A    between atoms: _517  and  _518
REMARK  210  A    between atoms: _517  and  _520
REMARK  211  A    between atoms: _520  and  _521
REMARK  212  A    between atoms: _526  and  _528
REMARK  213  A    between atoms: _528  and  _529
REMARK  214  A    between atoms: _528  and  _531
REMARK  215  A    between atoms: _531  and  _532
REMARK  216  A    between atoms: _535  and  _537
REMARK  217  A    between atoms: _537  and  _538
REMARK  218  A    between atoms: _537  and  _540
REMARK  219  A    between atoms: _540  and  _541
REMARK  220  A    between atoms: _541  and  _542
REMARK  221  A    between atoms: _542  and  _543
REMARK  222  A    between atoms: _552  and  _554
REMARK  223  A    between atoms: _554  and  _555
REMARK  224  A    between atoms: _554  and  _557
REMARK  225  A    between atoms: _557  and  _558
REMARK  226  A    between atoms: _558  and  _559
REMARK  227  A    between atoms: _559  and  _560
REMARK  228  A    between atoms: _569  and  _571
REMARK  229  A    between atoms: _571  and  _572
REMARK  230  A    between atoms: _571  and  _574
REMARK  231  A    between atoms: _574  and  _575
REMARK  232  A    between atoms: _575  and  _576
REMARK  233  A    between atoms: _576  and  _577
REMARK  234  A    between atoms: _577  and  _578
REMARK  235  A    between atoms: _582  and  _584
REMARK  236  A    between atoms: _584  and  _585
REMARK  237  A    between atoms: _584  and  _587
REMARK  238  A    between atoms: _587  and  _588
REMARK  239  A    between atoms: _590  and  _592
REMARK  240  A    between atoms: _592  and  _593
REMARK  241  A    between atoms: _592  and  _595
REMARK  242  A    between atoms: _595  and  _596
REMARK  243  A    between atoms: _599  and  _601
REMARK  244  A    between atoms: _601  and  _602
REMARK  245  A    between atoms: _601  and  _604
REMARK  246  A    between atoms: _607  and  _609
REMARK  247  A    between atoms: _609  and  _610
REMARK  248  A    between atoms: _612  and  _614
REMARK  249  A    between atoms: _614  and  _615
REMARK                            x       y       z     vdW  Elec       q    Type
REMARK                         _______ _______ _______ _____ _____    ______ ____
ROOT
ATOM      1  CA  VAL A   1      23.374   6.159   2.076  0.00  0.00    +0.133 C 
ENDROOT
BRANCH   1   2
ATOM      2  CB  VAL A   1      24.173   6.748   3.266  0.00  0.00    +0.023 C 
ATOM      3  CG2 VAL A   1      24.342   5.683   4.352  0.00  0.00    +0.002 C 
ATOM      4  CG1 VAL A   1      25.537   7.252   2.795  0.00  0.00    +0.002 C 
ENDBRANCH   1   2
BRANCH   1   5
ATOM      5  N   VAL A   1      22.998   7.158   1.072  0.00  0.00    -0.239 NA
ATOM      6  H   VAL A   1      22.435   7.987   1.349  0.00  0.00    +0.142 HD
ENDBRANCH   1   5
BRANCH   1   7
ATOM      7  C   VAL A   1      22.104   5.555   2.634  0.00  0.00    +0.224 C 
ATOM      8  O   VAL A   1      21.301   6.247   3.252  0.00  0.00    -0.287 OA
ENDBRANCH   1   7
TORSDOF 3
REMARK  Name = ../refined-set-2016/3ckp/3ckp_pocket.pdb
REMARK  249 active torsions:
REMARK  status: ('A' for Active; 'I' for Inactive)
REMARK    1  A    between atoms: _1  and  _3
REMARK    2  A    between atoms: _3  and  _4
REMARK    3  A    between atoms: _3  and  _6
REMARK    4  A    between atoms: _6  and  _7
REMARK    5  A    between atoms: _7  and  _8
REMARK    6  A    between atoms: _8  and  _9
REMARK    7  A    between atoms: _9  and  _10
REMARK    8  A    between atoms: _14  and  _16
REMARK    9  A    between atoms: _16  and  _17
REMARK   10  A    between atoms: _16  and  _19
REMARK   11  A    between atoms: _19  and  _20
REMARK   12  A    between atoms: _22  and  _24
REMARK   13  A    between atoms: _24  and  _25
REMARK   14  A    between atoms: _27  and  _29
REMARK   15  A    between atoms: _29  and  _30
REMARK   16  A    between atoms: _29  and  _32
REMARK   17  A    between atoms: _32  and  _33
REMARK   18  A    between atoms: _33  and  _34
REMARK   19  A    between atoms: _39  and  _41
REMARK   20  A    between atoms: _41  and  _42
REMARK   21  A    between atoms: _44  and  _46
REMARK   22  A    between atoms: _46  and  _47
REMARK   23  A    between atoms: _46  and  _49
REMARK   24  A    between atoms: _49  and  _50
REMARK   25  A    between atoms: _55  and  _56
REMARK   26  A    between atoms: _58  and  _60
REMARK   27  A    between atoms: _60  and  _61
REMARK   28  A    between atoms: _60  and  _63
REMARK   29  A    between atoms: _63  and  _64
REMARK   30  A    between atoms: _69  and  _70
REMARK   31  A    between atoms: _72  and  _74
REMARK   32  A    between atoms: _74  and  _75
REMARK   33  A    between atoms: _74  and  _77
REMARK   34  A    between atoms: _77  and  _78
REMARK   35  A    between atoms: _81  and  _83
REMARK   36  A    between atoms: _83  and  _84
REMARK   37  A    between atoms: _83  and  _86
REMARK   38  A    between atoms: _89  and  _91
REMARK   39  A    between atoms: _91  and  _92
REMARK   40  A    between atoms: _91  and  _94
REMARK   41  A    between atoms: _94  and  _95
REMARK   42  A    between atoms: _98  and  _100
REMARK   43  A    between atoms: _100  and  _101
REMARK   44  A    between atoms: _100  and  _103
REMARK   45  A    between atoms: _103  and  _104
REMARK   46  A    between atoms: _107  and  _109
REMARK   47  A    between atoms: _109  and  _110
REMARK   48  A    between atoms: _112  and  _114
REMARK   49  A    between atoms: _114  and  _115
REMARK   50  A    between atoms: _114  and  _117
REMARK   51  A    between atoms: _117  and  _118
REMARK   52  A    between atoms: _120  and  _122
REMARK   53  A    between atoms: _122  and  _123
REMARK   54  A    between atoms: _122  and  _125
REMARK   55  A    between atoms: _125  and  _126
REMARK   56  A    between atoms: _128  and  _130
REMARK   57  A    between atoms: _130  and  _131
REMARK   58  A    between atoms: _130  and  _133
REMARK   59  A    between atoms: _133  and  _134
REMARK   60  A    between atoms: _139  and  _141
REMARK   61  A    between atoms: _141  and  _142
REMARK   62  A    between atoms: _141  and  _144
REMARK   63  A    between atoms: _144  and  _145
REMARK   64  A    between atoms: _150  and  _151
REMARK   65  A    between atoms: _153  and  _155
REMARK   66  A    between atoms: _155  and  _156
REMARK   67  A    between atoms: _155  and  _158
REMARK   68  A    between atoms: _162  and  _163
REMARK   69  A    between atoms: _168  and  _170
REMARK   70  A    between atoms: _170  and  _171
REMARK   71  A    between atoms: _170  and  _173
REMARK   72  A    between atoms: _173  and  _174
REMARK   73  A    between atoms: _179  and  _180
REMARK   74  A    between atoms: _182  and  _184
REMARK   75  A    between atoms: _184  and  _185
REMARK   76  A    between atoms: _184  and  _187
REMARK   77  A    between atoms: _187  and  _188
REMARK   78  A    between atoms: _191  and  _193
REMARK   79  A    between atoms: _193  and  _194
REMARK   80  A    between atoms: _193  and  _196
REMARK   81  A    between atoms: _196  and  _197
REMARK   82  A    between atoms: _197  and  _198
REMARK   83  A    between atoms: _203  and  _205
REMARK   84  A    between atoms: _205  and  _206
REMARK   85  A    between atoms: _208  and  _210
REMARK   86  A    between atoms: _210  and  _211
REMARK   87  A    between atoms: _210  and  _213
REMARK   88  A    between atoms: _213  and  _214
REMARK   89  A    between atoms: _214  and  _215
REMARK   90  A    between atoms: _215  and  _216
REMARK   91  A    between atoms: _216  and  _217
REMARK   92  A    between atoms: _221  and  _223
REMARK   93  A    between atoms: _223  and  _224
REMARK   94  A    between atoms: _223  and  _226
REMARK   95  A    between atoms: _226  and  _227
REMARK   96  A    between atoms: _237  and  _239
REMARK   97  A    between atoms: _239  and  _240
REMARK   98  A    between atoms: _239  and  _242
REMARK   99  A    between atoms: _242  and  _243
REMARK  100  A    between atoms: _246  and  _248
REMARK  101  A    between atoms: _248  and  _249
REMARK  102  A    between atoms: _248  and  _251
REMARK  103  A    between atoms: _251  and  _252
REMARK  104  A    between atoms: _252  and  _253
REMARK  105  A    between atoms: _253  and  _254
REMARK  106  A    between atoms: _254  and  _255
REMARK  107  A    between atoms: _259  and  _261
REMARK  108  A    between atoms: _261  and  _262
REMARK  109  A    between atoms: _261  and  _264
REMARK  110  A    between atoms: _264  and  _265
REMARK  111  A    between atoms: _271  and  _273
REMARK  112  A    between atoms: _273  and  _274
REMARK  113  A    between atoms: _273  and  _276
REMARK  114  A    between atoms: _276  and  _277
REMARK  115  A    between atoms: _283  and  _285
REMARK  116  A    between atoms: _285  and  _286
REMARK  117  A    between atoms: _285  and  _288
REMARK  118  A    between atoms: _288  and  _289
REMARK  119  A    between atoms: _292  and  _294
REMARK  120  A    between atoms: _294  and  _295
REMARK  121  A    between atoms: _294  and  _297
REMARK  122  A    between atoms: _297  and  _298
REMARK  123  A    between atoms: _300  and  _302
REMARK  124  A    between atoms: _302  and  _303
REMARK  125  A    between atoms: _302  and  _305
REMARK  126  A    between atoms: _305  and  _306
REMARK  127  A    between atoms: _316  and  _318
REMARK  128  A    between atoms: _318  and  _319
REMARK  129  A    between atoms: _321  and  _323
REMARK  130  A    between atoms: _323  and  _324
REMARK  131  A    between atoms: _323  and  _326
REMARK  132  A    between atoms: _326  and  _327
REMARK  133  A    between atoms: _330  and  _332
REMARK  134  A    between atoms: _332  and  _333
REMARK  135  A    between atoms: _335  and  _337
REMARK  136  A    between atoms: _337  and  _338
REMARK  137  A    between atoms: _337  and  _340
REMARK  138  A    between atoms: _340  and  _341
REMARK  139  A    between atoms: _344  and  _346
REMARK  140  A    between atoms: _346  and  _347
REMARK  141  A    between atoms: _350  and  _352
REMARK  142  A    between atoms: _352  and  _353
REMARK  143  A    between atoms: _352  and  _355
REMARK  144  A    between atoms: _355  and  _356
REMARK  145  A    between atoms: _361  and  _362
REMARK  146  A    between atoms: _364  and  _366
REMARK  147  A    between atoms: _366  and  _367
REMARK  148  A    between atoms: _366  and  _369
REMARK  149  A    between atoms: _369  and  _370
REMARK  150  A    between atoms: _370  and  _371
REMARK  151  A    between atoms: _374  and  _376
REMARK  152  A    between atoms: _376  and  _377
REMARK  153  A    between atoms: _376  and  _379
REMARK  154  A    between atoms: _379  and  _380
REMARK  155  A    between atoms: _383  and  _385
REMARK  156  A    between atoms: _385  and  _386
REMARK  157  A    between atoms: _389  and  _391
REMARK  158  A    between atoms: _391  and  _392
REMARK  159  A    between atoms: _391  and  _394
REMARK  160  A    between atoms: _394  and  _395
REMARK  161  A    between atoms: _395  and  _396
REMARK  162  A    between atoms: _396  and  _397
REMARK  163  A    between atoms: _406  and  _408
REMARK  164  A    between atoms: _408  and  _409
REMARK  165  A    between atoms: _408  and  _411
REMARK  166  A    between atoms: _411  and  _412
REMARK  167  A    between atoms: _415  and  _417
REMARK  168  A    between atoms: _417  and  _418
REMARK  169  A    between atoms: _417  and  _420
REMARK  170  A    between atoms: _420  and  _421
REMARK  171  A    between atoms: _431  and  _433
REMARK  172  A    between atoms: _433  and  _434
REMARK  173  A    between atoms: _433  and  _436
REMARK  174  A    between atoms: _436  and  _437
REMARK  175  A    between atoms: _442  and  _443
REMARK  176  A    between atoms: _445  and  _447
REMARK  177  A    between atoms: _447  and  _448
REMARK  178  A    between atoms: _447  and  _450
REMARK  179  A    between atoms: _450  and  _451
REMARK  180  A    between atoms: _451  and  _452
REMARK  181  A    between atoms: _452  and  _453
REMARK  182  A    between atoms: _453  and  _454
REMARK  183  A    between atoms: _458  and  _460
REMARK  184  A    between atoms: _460  and  _461
REMARK  185  A    between atoms: _460  and  _463
REMARK  186  A    between atoms: _463  and  _464
REMARK  187  A    between atoms: _467  and  _469
REMARK  188  A    between atoms: _469  and  _470
REMARK  189  A    between atoms: _469  and  _472
REMARK  190  A    between atoms: _475  and  _477
REMARK  191  A    between atoms: _477  and  _478
REMARK  192  A    between atoms: _477  and  _480
REMARK  193  A    between atoms: _480  and  _481
REMARK  194  A    between atoms: _484  and  _486
REMARK  195  A    between atoms: _486  and  _487
REMARK  196  A    between atoms: _486  and  _489
REMARK  197  A    between atoms: _489  and  _490
REMARK  198  A    between atoms: _492  and  _494
REMARK  199  A    between atoms: _494  and  _495
REMARK  200  A    between atoms: _497  and  _499
REMARK  201  A    between atoms: _499  and  _500
REMARK  202  A    between atoms: _499  and  _502
REMARK  203  A    between atoms: _502  and  _503
REMARK  204  A    between atoms: _506  and  _508
REMARK  205  A    between atoms: _508  and  _509
REMARK  206  A    between atoms: _508  and  _511
REMARK  207  A    between atoms: _511  and  _512
REMARK  208  A    between atoms: _515  and  _517
REMARK  209  A    between atoms: _517  and  _518
REMARK  210  A    between atoms: _517  and  _520
REMARK  211  A    between atoms: _520  and  _521
REMARK  212  A    between atoms: _526  and  _528
REMARK  213  A    between atoms: _528  and  _529
REMARK  214  A    between atoms: _528  and  _531
REMARK  215  A    between atoms: _531  and  _532
REMARK  216  A    between atoms: _535  and  _537
REMARK  217  A    between atoms: _537  and  _538
REMARK  218  A    between atoms: _537  and  _540
REMARK  219  A    between atoms: _540  and  _541
REMARK  220  A    between atoms: _541  and  _542
REMARK  221  A    between atoms: _542  and  _543
REMARK  222  A    between atoms: _552  and  _554
REMARK  223  A    between atoms: _554  and  _555
REMARK  224  A    between atoms: _554  and  _557
REMARK  225  A    between atoms: _557  and  _558
REMARK  226  A    between atoms: _558  and  _559
REMARK  227  A    between atoms: _559  and  _560
REMARK  228  A    between atoms: _569  and  _571
REMARK  229  A    between atoms: _571  and  _572
REMARK  230  A    between atoms: _571  and  _574
REMARK  231  A    between atoms: _574  and  _575
REMARK  232  A    between atoms: _575  and  _576
REMARK  233  A    between atoms: _576  and  _577
REMARK  234  A    between atoms: _577  and  _578
REMARK  235  A    between atoms: _582  and  _584
REMARK  236  A    between atoms: _584  and  _585
REMARK  237  A    between atoms: _584  and  _587
REMARK  238  A    between atoms: _587  and  _588
REMARK  239  A    between atoms: _590  and  _592
REMARK  240  A    between atoms: _592  and  _593
REMARK  241  A    between atoms: _592  and  _595
REMARK  242  A    between atoms: _595  and  _596
REMARK  243  A    between atoms: _599  and  _601
REMARK  244  A    between atoms: _601  and  _602
REMARK  245  A    between atoms: _601  and  _604
REMARK  246  A    between atoms: _607  and  _609
REMARK  247  A    between atoms: _609  and  _610
REMARK  248  A    between atoms: _612  and  _614
REMARK  249  A    between atoms: _614  and  _615
REMARK                            x       y       z     vdW  Elec       q    Type
REMARK                         _______ _______ _______ _____ _____    ______ ____
ROOT
ATOM      1  C   GLY A   1      20.255   3.043   7.413  0.00  0.00    +0.240 C 
ATOM      2  N   ALA A   2      20.330   3.049   8.741  0.00  0.00    -0.298 N 
ATOM      3  H   ALA A   2      21.059   3.625   9.208  0.00  0.00    +0.150 HD
ATOM      4  O   GLY A   1      19.404   2.407   6.790  0.00  0.00    -0.274 OA
ENDROOT
BRANCH   2   5
ATOM      5  CA  ALA A   2      19.407   2.262   9.556  0.00  0.00    +0.137 C 
ATOM      6  CB  ALA A   2      19.775   2.385  11.022  0.00  0.00    +0.030 C 
BRANCH   5   7
ATOM      7  C   ALA A   2      17.935   2.633   9.343  0.00  0.00    +0.227 C 
ATOM      8  O   ALA A   2      17.057   1.761   9.415  0.00  0.00    -0.286 OA
ENDBRANCH   5   7
ENDBRANCH   2   5
BRANCH   1   9
ATOM      9  CA  GLY A   1      21.274   3.879   6.678  0.00  0.00    +0.169 C 
BRANCH   9  10
ATOM     10  N   GLY A   1      20.940   4.136   5.290  0.00  0.00    -0.236 NA
ATOM     11  H   GLY A   1      20.591   5.077   5.018  0.00  0.00    +0.142 HD
ENDBRANCH   9  10
ENDBRANCH   1   9
TORSDOF 4
REMARK  Name = ../refined-set-2016/3ckp/3ckp_pocket.pdb
REMARK  249 active torsions:
REMARK  status: ('A' for Active; 'I' for Inactive)
REMARK    1  A    between atoms: _1  and  _3
REMARK    2  A    between atoms: _3  and  _4
REMARK    3  A    between atoms: _3  and  _6
REMARK    4  A    between atoms: _6  and  _7
REMARK    5  A    between atoms: _7  and  _8
REMARK    6  A    between atoms: _8  and  _9
REMARK    7  A    between atoms: _9  and  _10
REMARK    8  A    between atoms: _14  and  _16
REMARK    9  A    between atoms: _16  and  _17
REMARK   10  A    between atoms: _16  and  _19
REMARK   11  A    between atoms: _19  and  _20
REMARK   12  A    between atoms: _22  and  _24
REMARK   13  A    between atoms: _24  and  _25
REMARK   14  A    between atoms: _27  and  _29
REMARK   15  A    between atoms: _29  and  _30
REMARK   16  A    between atoms: _29  and  _32
REMARK   17  A    between atoms: _32  and  _33
REMARK   18  A    between atoms: _33  and  _34
REMARK   19  A    between atoms: _39  and  _41
REMARK   20  A    between atoms: _41  and  _42
REMARK   21  A    between atoms: _44  and  _46
REMARK   22  A    between atoms: _46  and  _47
REMARK   23  A    between atoms: _46  and  _49
REMARK   24  A    between atoms: _49  and  _50
REMARK   25  A    between atoms: _55  and  _56
REMARK   26  A    between atoms: _58  and  _60
REMARK   27  A    between atoms: _60  and  _61
REMARK   28  A    between atoms: _60  and  _63
REMARK   29  A    between atoms: _63  and  _64
REMARK   30  A    between atoms: _69  and  _70
REMARK   31  A    between atoms: _72  and  _74
REMARK   32  A    between atoms: _74  and  _75
REMARK   33  A    between atoms: _74  and  _77
REMARK   34  A    between atoms: _77  and  _78
REMARK   35  A    between atoms: _81  and  _83
REMARK   36  A    between atoms: _83  and  _84
REMARK   37  A    between atoms: _83  and  _86
REMARK   38  A    between atoms: _89  and  _91
REMARK   39  A    between atoms: _91  and  _92
REMARK   40  A    between atoms: _91  and  _94
REMARK   41  A    between atoms: _94  and  _95
REMARK   42  A    between atoms: _98  and  _100
REMARK   43  A    between atoms: _100  and  _101
REMARK   44  A    between atoms: _100  and  _103
REMARK   45  A    between atoms: _103  and  _104
REMARK   46  A    between atoms: _107  and  _109
REMARK   47  A    between atoms: _109  and  _110
REMARK   48  A    between atoms: _112  and  _114
REMARK   49  A    between atoms: _114  and  _115
REMARK   50  A    between atoms: _114  and  _117
REMARK   51  A    between atoms: _117  and  _118
REMARK   52  A    between atoms: _120  and  _122
REMARK   53  A    between atoms: _122  and  _123
REMARK   54  A    between atoms: _122  and  _125
REMARK   55  A    between atoms: _125  and  _126
REMARK   56  A    between atoms: _128  and  _130
REMARK   57  A    between atoms: _130  and  _131
REMARK   58  A    between atoms: _130  and  _133
REMARK   59  A    between atoms: _133  and  _134
REMARK   60  A    between atoms: _139  and  _141
REMARK   61  A    between atoms: _141  and  _142
REMARK   62  A    between atoms: _141  and  _144
REMARK   63  A    between atoms: _144  and  _145
REMARK   64  A    between atoms: _150  and  _151
REMARK   65  A    between atoms: _153  and  _155
REMARK   66  A    between atoms: _155  and  _156
REMARK   67  A    between atoms: _155  and  _158
REMARK   68  A    between atoms: _162  and  _163
REMARK   69  A    between atoms: _168  and  _170
REMARK   70  A    between atoms: _170  and  _171
REMARK   71  A    between atoms: _170  and  _173
REMARK   72  A    between atoms: _173  and  _174
REMARK   73  A    between atoms: _179  and  _180
REMARK   74  A    between atoms: _182  and  _184
REMARK   75  A    between atoms: _184  and  _185
REMARK   76  A    between atoms: _184  and  _187
REMARK   77  A    between atoms: _187  and  _188
REMARK   78  A    between atoms: _191  and  _193
REMARK   79  A    between atoms: _193  and  _194
REMARK   80  A    between atoms: _193  and  _196
REMARK   81  A    between atoms: _196  and  _197
REMARK   82  A    between atoms: _197  and  _198
REMARK   83  A    between atoms: _203  and  _205
REMARK   84  A    between atoms: _205  and  _206
REMARK   85  A    between atoms: _208  and  _210
REMARK   86  A    between atoms: _210  and  _211
REMARK   87  A    between atoms: _210  and  _213
REMARK   88  A    between atoms: _213  and  _214
REMARK   89  A    between atoms: _214  and  _215
REMARK   90  A    between atoms: _215  and  _216
REMARK   91  A    between atoms: _216  and  _217
REMARK   92  A    between atoms: _221  and  _223
REMARK   93  A    between atoms: _223  and  _224
REMARK   94  A    between atoms: _223  and  _226
REMARK   95  A    between atoms: _226  and  _227
REMARK   96  A    between atoms: _237  and  _239
REMARK   97  A    between atoms: _239  and  _240
REMARK   98  A    between atoms: _239  and  _242
REMARK   99  A    between atoms: _242  and  _243
REMARK  100  A    between atoms: _246  and  _248
REMARK  101  A    between atoms: _248  and  _249
REMARK  102  A    between atoms: _248  and  _251
REMARK  103  A    between atoms: _251  and  _252
REMARK  104  A    between atoms: _252  and  _253
REMARK  105  A    between atoms: _253  and  _254
REMARK  106  A    between atoms: _254  and  _255
REMARK  107  A    between atoms: _259  and  _261
REMARK  108  A    between atoms: _261  and  _262
REMARK  109  A    between atoms: _261  and  _264
REMARK  110  A    between atoms: _264  and  _265
REMARK  111  A    between atoms: _271  and  _273
REMARK  112  A    between atoms: _273  and  _274
REMARK  113  A    between atoms: _273  and  _276
REMARK  114  A    between atoms: _276  and  _277
REMARK  115  A    between atoms: _283  and  _285
REMARK  116  A    between atoms: _285  and  _286
REMARK  117  A    between atoms: _285  and  _288
REMARK  118  A    between atoms: _288  and  _289
REMARK  119  A    between atoms: _292  and  _294
REMARK  120  A    between atoms: _294  and  _295
REMARK  121  A    between atoms: _294  and  _297
REMARK  122  A    between atoms: _297  and  _298
REMARK  123  A    between atoms: _300  and  _302
REMARK  124  A    between atoms: _302  and  _303
REMARK  125  A    between atoms: _302  and  _305
REMARK  126  A    between atoms: _305  and  _306
REMARK  127  A    between atoms: _316  and  _318
REMARK  128  A    between atoms: _318  and  _319
REMARK  129  A    between atoms: _321  and  _323
REMARK  130  A    between atoms: _323  and  _324
REMARK  131  A    between atoms: _323  and  _326
REMARK  132  A    between atoms: _326  and  _327
REMARK  133  A    between atoms: _330  and  _332
REMARK  134  A    between atoms: _332  and  _333
REMARK  135  A    between atoms: _335  and  _337
REMARK  136  A    between atoms: _337  and  _338
REMARK  137  A    between atoms: _337  and  _340
REMARK  138  A    between atoms: _340  and  _341
REMARK  139  A    between atoms: _344  and  _346
REMARK  140  A    between atoms: _346  and  _347
REMARK  141  A    between atoms: _350  and  _352
REMARK  142  A    between atoms: _352  and  _353
REMARK  143  A    between atoms: _352  and  _355
REMARK  144  A    between atoms: _355  and  _356
REMARK  145  A    between atoms: _361  and  _362
REMARK  146  A    between atoms: _364  and  _366
REMARK  147  A    between atoms: _366  and  _367
REMARK  148  A    between atoms: _366  and  _369
REMARK  149  A    between atoms: _369  and  _370
REMARK  150  A    between atoms: _370  and  _371
REMARK  151  A    between atoms: _374  and  _376
REMARK  152  A    between atoms: _376  and  _377
REMARK  153  A    between atoms: _376  and  _379
REMARK  154  A    between atoms: _379  and  _380
REMARK  155  A    between atoms: _383  and  _385
REMARK  156  A    between atoms: _385  and  _386
REMARK  157  A    between atoms: _389  and  _391
REMARK  158  A    between atoms: _391  and  _392
REMARK  159  A    between atoms: _391  and  _394
REMARK  160  A    between atoms: _394  and  _395
REMARK  161  A    between atoms: _395  and  _396
REMARK  162  A    between atoms: _396  and  _397
REMARK  163  A    between atoms: _406  and  _408
REMARK  164  A    between atoms: _408  and  _409
REMARK  165  A    between atoms: _408  and  _411
REMARK  166  A    between atoms: _411  and  _412
REMARK  167  A    between atoms: _415  and  _417
REMARK  168  A    between atoms: _417  and  _418
REMARK  169  A    between atoms: _417  and  _420
REMARK  170  A    between atoms: _420  and  _421
REMARK  171  A    between atoms: _431  and  _433
REMARK  172  A    between atoms: _433  and  _434
REMARK  173  A    between atoms: _433  and  _436
REMARK  174  A    between atoms: _436  and  _437
REMARK  175  A    between atoms: _442  and  _443
REMARK  176  A    between atoms: _445  and  _447
REMARK  177  A    between atoms: _447  and  _448
REMARK  178  A    between atoms: _447  and  _450
REMARK  179  A    between atoms: _450  and  _451
REMARK  180  A    between atoms: _451  and  _452
REMARK  181  A    between atoms: _452  and  _453
REMARK  182  A    between atoms: _453  and  _454
REMARK  183  A    between atoms: _458  and  _460
REMARK  184  A    between atoms: _460  and  _461
REMARK  185  A    between atoms: _460  and  _463
REMARK  186  A    between atoms: _463  and  _464
REMARK  187  A    between atoms: _467  and  _469
REMARK  188  A    between atoms: _469  and  _470
REMARK  189  A    between atoms: _469  and  _472
REMARK  190  A    between atoms: _475  and  _477
REMARK  191  A    between atoms: _477  and  _478
REMARK  192  A    between atoms: _477  and  _480
REMARK  193  A    between atoms: _480  and  _481
REMARK  194  A    between atoms: _484  and  _486
REMARK  195  A    between atoms: _486  and  _487
REMARK  196  A    between atoms: _486  and  _489
REMARK  197  A    between atoms: _489  and  _490
REMARK  198  A    between atoms: _492  and  _494
REMARK  199  A    between atoms: _494  and  _495
REMARK  200  A    between atoms: _497  and  _499
REMARK  201  A    between atoms: _499  and  _500
REMARK  202  A    between atoms: _499  and  _502
REMARK  203  A    between atoms: _502  and  _503
REMARK  204  A    between atoms: _506  and  _508
REMARK  205  A    between atoms: _508  and  _509
REMARK  206  A    between atoms: _508  and  _511
REMARK  207  A    between atoms: _511  and  _512
REMARK  208  A    between atoms: _515  and  _517
REMARK  209  A    between atoms: _517  and  _518
REMARK  210  A    between atoms: _517  and  _520
REMARK  211  A    between atoms: _520  and  _521
REMARK  212  A    between atoms: _526  and  _528
REMARK  213  A    between atoms: _528  and  _529
REMARK  214  A    between atoms: _528  and  _531
REMARK  215  A    between atoms: _531  and  _532
REMARK  216  A    between atoms: _535  and  _537
REMARK  217  A    between atoms: _537  and  _538
REMARK  218  A    between atoms: _537  and  _540
REMARK  219  A    between atoms: _540  and  _541
REMARK  220  A    between atoms: _541  and  _542
REMARK  221  A    between atoms: _542  and  _543
REMARK  222  A    between atoms: _552  and  _554
REMARK  223  A    between atoms: _554  and  _555
REMARK  224  A    between atoms: _554  and  _557
REMARK  225  A    between atoms: _557  and  _558
REMARK  226  A    between atoms: _558  and  _559
REMARK  227  A    between atoms: _559  and  _560
REMARK  228  A    between atoms: _569  and  _571
REMARK  229  A    between atoms: _571  and  _572
REMARK  230  A    between atoms: _571  and  _574
REMARK  231  A    between atoms: _574  and  _575
REMARK  232  A    between atoms: _575  and  _576
REMARK  233  A    between atoms: _576  and  _577
REMARK  234  A    between atoms: _577  and  _578
REMARK  235  A    between atoms: _582  and  _584
REMARK  236  A    between atoms: _584  and  _585
REMARK  237  A    between atoms: _584  and  _587
REMARK  238  A    between atoms: _587  and  _588
REMARK  239  A    between atoms: _590  and  _592
REMARK  240  A    between atoms: _592  and  _593
REMARK  241  A    between atoms: _592  and  _595
REMARK  242  A    between atoms: _595  and  _596
REMARK  243  A    between atoms: _599  and  _601
REMARK  244  A    between atoms: _601  and  _602
REMARK  245  A    between atoms: _601  and  _604
REMARK  246  A    between atoms: _607  and  _609
REMARK  247  A    between atoms: _609  and  _610
REMARK  248  A    between atoms: _612  and  _614
REMARK  249  A    between atoms: _614  and  _615
REMARK                            x       y       z     vdW  Elec       q    Type
REMARK                         _______ _______ _______ _____ _____    ______ ____
ROOT
ATOM      1  O   HOH     1      25.313  -0.578  13.463  0.00  0.00    +0.000 OA
ENDROOT
TORSDOF 0
REMARK  Name = ../refined-set-2016/3ckp/3ckp_pocket.pdb
REMARK  249 active torsions:
REMARK  status: ('A' for Active; 'I' for Inactive)
REMARK    1  A    between atoms: _1  and  _3
REMARK    2  A    between atoms: _3  and  _4
REMARK    3  A    between atoms: _3  and  _6
REMARK    4  A    between atoms: _6  and  _7
REMARK    5  A    between atoms: _7  and  _8
REMARK    6  A    between atoms: _8  and  _9
REMARK    7  A    between atoms: _9  and  _10
REMARK    8  A    between atoms: _14  and  _16
REMARK    9  A    between atoms: _16  and  _17
REMARK   10  A    between atoms: _16  and  _19
REMARK   11  A    between atoms: _19  and  _20
REMARK   12  A    between atoms: _22  and  _24
REMARK   13  A    between atoms: _24  and  _25
REMARK   14  A    between atoms: _27  and  _29
REMARK   15  A    between atoms: _29  and  _30
REMARK   16  A    between atoms: _29  and  _32
REMARK   17  A    between atoms: _32  and  _33
REMARK   18  A    between atoms: _33  and  _34
REMARK   19  A    between atoms: _39  and  _41
REMARK   20  A    between atoms: _41  and  _42
REMARK   21  A    between atoms: _44  and  _46
REMARK   22  A    between atoms: _46  and  _47
REMARK   23  A    between atoms: _46  and  _49
REMARK   24  A    between atoms: _49  and  _50
REMARK   25  A    between atoms: _55  and  _56
REMARK   26  A    between atoms: _58  and  _60
REMARK   27  A    between atoms: _60  and  _61
REMARK   28  A    between atoms: _60  and  _63
REMARK   29  A    between atoms: _63  and  _64
REMARK   30  A    between atoms: _69  and  _70
REMARK   31  A    between atoms: _72  and  _74
REMARK   32  A    between atoms: _74  and  _75
REMARK   33  A    between atoms: _74  and  _77
REMARK   34  A    between atoms: _77  and  _78
REMARK   35  A    between atoms: _81  and  _83
REMARK   36  A    between atoms: _83  and  _84
REMARK   37  A    between atoms: _83  and  _86
REMARK   38  A    between atoms: _89  and  _91
REMARK   39  A    between atoms: _91  and  _92
REMARK   40  A    between atoms: _91  and  _94
REMARK   41  A    between atoms: _94  and  _95
REMARK   42  A    between atoms: _98  and  _100
REMARK   43  A    between atoms: _100  and  _101
REMARK   44  A    between atoms: _100  and  _103
REMARK   45  A    between atoms: _103  and  _104
REMARK   46  A    between atoms: _107  and  _109
REMARK   47  A    between atoms: _109  and  _110
REMARK   48  A    between atoms: _112  and  _114
REMARK   49  A    between atoms: _114  and  _115
REMARK   50  A    between atoms: _114  and  _117
REMARK   51  A    between atoms: _117  and  _118
REMARK   52  A    between atoms: _120  and  _122
REMARK   53  A    between atoms: _122  and  _123
REMARK   54  A    between atoms: _122  and  _125
REMARK   55  A    between atoms: _125  and  _126
REMARK   56  A    between atoms: _128  and  _130
REMARK   57  A    between atoms: _130  and  _131
REMARK   58  A    between atoms: _130  and  _133
REMARK   59  A    between atoms: _133  and  _134
REMARK   60  A    between atoms: _139  and  _141
REMARK   61  A    between atoms: _141  and  _142
REMARK   62  A    between atoms: _141  and  _144
REMARK   63  A    between atoms: _144  and  _145
REMARK   64  A    between atoms: _150  and  _151
REMARK   65  A    between atoms: _153  and  _155
REMARK   66  A    between atoms: _155  and  _156
REMARK   67  A    between atoms: _155  and  _158
REMARK   68  A    between atoms: _162  and  _163
REMARK   69  A    between atoms: _168  and  _170
REMARK   70  A    between atoms: _170  and  _171
REMARK   71  A    between atoms: _170  and  _173
REMARK   72  A    between atoms: _173  and  _174
REMARK   73  A    between atoms: _179  and  _180
REMARK   74  A    between atoms: _182  and  _184
REMARK   75  A    between atoms: _184  and  _185
REMARK   76  A    between atoms: _184  and  _187
REMARK   77  A    between atoms: _187  and  _188
REMARK   78  A    between atoms: _191  and  _193
REMARK   79  A    between atoms: _193  and  _194
REMARK   80  A    between atoms: _193  and  _196
REMARK   81  A    between atoms: _196  and  _197
REMARK   82  A    between atoms: _197  and  _198
REMARK   83  A    between atoms: _203  and  _205
REMARK   84  A    between atoms: _205  and  _206
REMARK   85  A    between atoms: _208  and  _210
REMARK   86  A    between atoms: _210  and  _211
REMARK   87  A    between atoms: _210  and  _213
REMARK   88  A    between atoms: _213  and  _214
REMARK   89  A    between atoms: _214  and  _215
REMARK   90  A    between atoms: _215  and  _216
REMARK   91  A    between atoms: _216  and  _217
REMARK   92  A    between atoms: _221  and  _223
REMARK   93  A    between atoms: _223  and  _224
REMARK   94  A    between atoms: _223  and  _226
REMARK   95  A    between atoms: _226  and  _227
REMARK   96  A    between atoms: _237  and  _239
REMARK   97  A    between atoms: _239  and  _240
REMARK   98  A    between atoms: _239  and  _242
REMARK   99  A    between atoms: _242  and  _243
REMARK  100  A    between atoms: _246  and  _248
REMARK  101  A    between atoms: _248  and  _249
REMARK  102  A    between atoms: _248  and  _251
REMARK  103  A    between atoms: _251  and  _252
REMARK  104  A    between atoms: _252  and  _253
REMARK  105  A    between atoms: _253  and  _254
REMARK  106  A    between atoms: _254  and  _255
REMARK  107  A    between atoms: _259  and  _261
REMARK  108  A    between atoms: _261  and  _262
REMARK  109  A    between atoms: _261  and  _264
REMARK  110  A    between atoms: _264  and  _265
REMARK  111  A    between atoms: _271  and  _273
REMARK  112  A    between atoms: _273  and  _274
REMARK  113  A    between atoms: _273  and  _276
REMARK  114  A    between atoms: _276  and  _277
REMARK  115  A    between atoms: _283  and  _285
REMARK  116  A    between atoms: _285  and  _286
REMARK  117  A    between atoms: _285  and  _288
REMARK  118  A    between atoms: _288  and  _289
REMARK  119  A    between atoms: _292  and  _294
REMARK  120  A    between atoms: _294  and  _295
REMARK  121  A    between atoms: _294  and  _297
REMARK  122  A    between atoms: _297  and  _298
REMARK  123  A    between atoms: _300  and  _302
REMARK  124  A    between atoms: _302  and  _303
REMARK  125  A    between atoms: _302  and  _305
REMARK  126  A    between atoms: _305  and  _306
REMARK  127  A    between atoms: _316  and  _318
REMARK  128  A    between atoms: _318  and  _319
REMARK  129  A    between atoms: _321  and  _323
REMARK  130  A    between atoms: _323  and  _324
REMARK  131  A    between atoms: _323  and  _326
REMARK  132  A    between atoms: _326  and  _327
REMARK  133  A    between atoms: _330  and  _332
REMARK  134  A    between atoms: _332  and  _333
REMARK  135  A    between atoms: _335  and  _337
REMARK  136  A    between atoms: _337  and  _338
REMARK  137  A    between atoms: _337  and  _340
REMARK  138  A    between atoms: _340  and  _341
REMARK  139  A    between atoms: _344  and  _346
REMARK  140  A    between atoms: _346  and  _347
REMARK  141  A    between atoms: _350  and  _352
REMARK  142  A    between atoms: _352  and  _353
REMARK  143  A    between atoms: _352  and  _355
REMARK  144  A    between atoms: _355  and  _356
REMARK  145  A    between atoms: _361  and  _362
REMARK  146  A    between atoms: _364  and  _366
REMARK  147  A    between atoms: _366  and  _367
REMARK  148  A    between atoms: _366  and  _369
REMARK  149  A    between atoms: _369  and  _370
REMARK  150  A    between atoms: _370  and  _371
REMARK  151  A    between atoms: _374  and  _376
REMARK  152  A    between atoms: _376  and  _377
REMARK  153  A    between atoms: _376  and  _379
REMARK  154  A    between atoms: _379  and  _380
REMARK  155  A    between atoms: _383  and  _385
REMARK  156  A    between atoms: _385  and  _386
REMARK  157  A    between atoms: _389  and  _391
REMARK  158  A    between atoms: _391  and  _392
REMARK  159  A    between atoms: _391  and  _394
REMARK  160  A    between atoms: _394  and  _395
REMARK  161  A    between atoms: _395  and  _396
REMARK  162  A    between atoms: _396  and  _397
REMARK  163  A    between atoms: _406  and  _408
REMARK  164  A    between atoms: _408  and  _409
REMARK  165  A    between atoms: _408  and  _411
REMARK  166  A    between atoms: _411  and  _412
REMARK  167  A    between atoms: _415  and  _417
REMARK  168  A    between atoms: _417  and  _418
REMARK  169  A    between atoms: _417  and  _420
REMARK  170  A    between atoms: _420  and  _421
REMARK  171  A    between atoms: _431  and  _433
REMARK  172  A    between atoms: _433  and  _434
REMARK  173  A    between atoms: _433  and  _436
REMARK  174  A    between atoms: _436  and  _437
REMARK  175  A    between atoms: _442  and  _443
REMARK  176  A    between atoms: _445  and  _447
REMARK  177  A    between atoms: _447  and  _448
REMARK  178  A    between atoms: _447  and  _450
REMARK  179  A    between atoms: _450  and  _451
REMARK  180  A    between atoms: _451  and  _452
REMARK  181  A    between atoms: _452  and  _453
REMARK  182  A    between atoms: _453  and  _454
REMARK  183  A    between atoms: _458  and  _460
REMARK  184  A    between atoms: _460  and  _461
REMARK  185  A    between atoms: _460  and  _463
REMARK  186  A    between atoms: _463  and  _464
REMARK  187  A    between atoms: _467  and  _469
REMARK  188  A    between atoms: _469  and  _470
REMARK  189  A    between atoms: _469  and  _472
REMARK  190  A    between atoms: _475  and  _477
REMARK  191  A    between atoms: _477  and  _478
REMARK  192  A    between atoms: _477  and  _480
REMARK  193  A    between atoms: _480  and  _481
REMARK  194  A    between atoms: _484  and  _486
REMARK  195  A    between atoms: _486  and  _487
REMARK  196  A    between atoms: _486  and  _489
REMARK  197  A    between atoms: _489  and  _490
REMARK  198  A    between atoms: _492  and  _494
REMARK  199  A    between atoms: _494  and  _495
REMARK  200  A    between atoms: _497  and  _499
REMARK  201  A    between atoms: _499  and  _500
REMARK  202  A    between atoms: _499  and  _502
REMARK  203  A    between atoms: _502  and  _503
REMARK  204  A    between atoms: _506  and  _508
REMARK  205  A    between atoms: _508  and  _509
REMARK  206  A    between atoms: _508  and  _511
REMARK  207  A    between atoms: _511  and  _512
REMARK  208  A    between atoms: _515  and  _517
REMARK  209  A    between atoms: _517  and  _518
REMARK  210  A    between atoms: _517  and  _520
REMARK  211  A    between atoms: _520  and  _521
REMARK  212  A    between atoms: _526  and  _528
REMARK  213  A    between atoms: _528  and  _529
REMARK  214  A    between atoms: _528  and  _531
REMARK  215  A    between atoms: _531  and  _532
REMARK  216  A    between atoms: _535  and  _537
REMARK  217  A    between atoms: _537  and  _538
REMARK  218  A    between atoms: _537  and  _540
REMARK  219  A    between atoms: _540  and  _541
REMARK  220  A    between atoms: _541  and  _542
REMARK  221  A    between atoms: _542  and  _543
REMARK  222  A    between atoms: _552  and  _554
REMARK  223  A    between atoms: _554  and  _555
REMARK  224  A    between atoms: _554  and  _557
REMARK  225  A    between atoms: _557  and  _558
REMARK  226  A    between atoms: _558  and  _559
REMARK  227  A    between atoms: _559  and  _560
REMARK  228  A    between atoms: _569  and  _571
REMARK  229  A    between atoms: _571  and  _572
REMARK  230  A    between atoms: _571  and  _574
REMARK  231  A    between atoms: _574  and  _575
REMARK  232  A    between atoms: _575  and  _576
REMARK  233  A    between atoms: _576  and  _577
REMARK  234  A    between atoms: _577  and  _578
REMARK  235  A    between atoms: _582  and  _584
REMARK  236  A    between atoms: _584  and  _585
REMARK  237  A    between atoms: _584  and  _587
REMARK  238  A    between atoms: _587  and  _588
REMARK  239  A    between atoms: _590  and  _592
REMARK  240  A    between atoms: _592  and  _593
REMARK  241  A    between atoms: _592  and  _595
REMARK  242  A    between atoms: _595  and  _596
REMARK  243  A    between atoms: _599  and  _601
REMARK  244  A    between atoms: _601  and  _602
REMARK  245  A    between atoms: _601  and  _604
REMARK  246  A    between atoms: _607  and  _609
REMARK  247  A    between atoms: _609  and  _610
REMARK  248  A    between atoms: _612  and  _614
REMARK  249  A    between atoms: _614  and  _615
REMARK                            x       y       z     vdW  Elec       q    Type
REMARK                         _______ _______ _______ _____ _____    ______ ____
ROOT
ATOM      1  O   HOH     1      20.670   2.353  16.937  0.00  0.00    +0.000 OA
ENDROOT
TORSDOF 0
REMARK  Name = ../refined-set-2016/3ckp/3ckp_pocket.pdb
REMARK  249 active torsions:
REMARK  status: ('A' for Active; 'I' for Inactive)
REMARK    1  A    between atoms: _1  and  _3
REMARK    2  A    between atoms: _3  and  _4
REMARK    3  A    between atoms: _3  and  _6
REMARK    4  A    between atoms: _6  and  _7
REMARK    5  A    between atoms: _7  and  _8
REMARK    6  A    between atoms: _8  and  _9
REMARK    7  A    between atoms: _9  and  _10
REMARK    8  A    between atoms: _14  and  _16
REMARK    9  A    between atoms: _16  and  _17
REMARK   10  A    between atoms: _16  and  _19
REMARK   11  A    between atoms: _19  and  _20
REMARK   12  A    between atoms: _22  and  _24
REMARK   13  A    between atoms: _24  and  _25
REMARK   14  A    between atoms: _27  and  _29
REMARK   15  A    between atoms: _29  and  _30
REMARK   16  A    between atoms: _29  and  _32
REMARK   17  A    between atoms: _32  and  _33
REMARK   18  A    between atoms: _33  and  _34
REMARK   19  A    between atoms: _39  and  _41
REMARK   20  A    between atoms: _41  and  _42
REMARK   21  A    between atoms: _44  and  _46
REMARK   22  A    between atoms: _46  and  _47
REMARK   23  A    between atoms: _46  and  _49
REMARK   24  A    between atoms: _49  and  _50
REMARK   25  A    between atoms: _55  and  _56
REMARK   26  A    between atoms: _58  and  _60
REMARK   27  A    between atoms: _60  and  _61
REMARK   28  A    between atoms: _60  and  _63
REMARK   29  A    between atoms: _63  and  _64
REMARK   30  A    between atoms: _69  and  _70
REMARK   31  A    between atoms: _72  and  _74
REMARK   32  A    between atoms: _74  and  _75
REMARK   33  A    between atoms: _74  and  _77
REMARK   34  A    between atoms: _77  and  _78
REMARK   35  A    between atoms: _81  and  _83
REMARK   36  A    between atoms: _83  and  _84
REMARK   37  A    between atoms: _83  and  _86
REMARK   38  A    between atoms: _89  and  _91
REMARK   39  A    between atoms: _91  and  _92
REMARK   40  A    between atoms: _91  and  _94
REMARK   41  A    between atoms: _94  and  _95
REMARK   42  A    between atoms: _98  and  _100
REMARK   43  A    between atoms: _100  and  _101
REMARK   44  A    between atoms: _100  and  _103
REMARK   45  A    between atoms: _103  and  _104
REMARK   46  A    between atoms: _107  and  _109
REMARK   47  A    between atoms: _109  and  _110
REMARK   48  A    between atoms: _112  and  _114
REMARK   49  A    between atoms: _114  and  _115
REMARK   50  A    between atoms: _114  and  _117
REMARK   51  A    between atoms: _117  and  _118
REMARK   52  A    between atoms: _120  and  _122
REMARK   53  A    between atoms: _122  and  _123
REMARK   54  A    between atoms: _122  and  _125
REMARK   55  A    between atoms: _125  and  _126
REMARK   56  A    between atoms: _128  and  _130
REMARK   57  A    between atoms: _130  and  _131
REMARK   58  A    between atoms: _130  and  _133
REMARK   59  A    between atoms: _133  and  _134
REMARK   60  A    between atoms: _139  and  _141
REMARK   61  A    between atoms: _141  and  _142
REMARK   62  A    between atoms: _141  and  _144
REMARK   63  A    between atoms: _144  and  _145
REMARK   64  A    between atoms: _150  and  _151
REMARK   65  A    between atoms: _153  and  _155
REMARK   66  A    between atoms: _155  and  _156
REMARK   67  A    between atoms: _155  and  _158
REMARK   68  A    between atoms: _162  and  _163
REMARK   69  A    between atoms: _168  and  _170
REMARK   70  A    between atoms: _170  and  _171
REMARK   71  A    between atoms: _170  and  _173
REMARK   72  A    between atoms: _173  and  _174
REMARK   73  A    between atoms: _179  and  _180
REMARK   74  A    between atoms: _182  and  _184
REMARK   75  A    between atoms: _184  and  _185
REMARK   76  A    between atoms: _184  and  _187
REMARK   77  A    between atoms: _187  and  _188
REMARK   78  A    between atoms: _191  and  _193
REMARK   79  A    between atoms: _193  and  _194
REMARK   80  A    between atoms: _193  and  _196
REMARK   81  A    between atoms: _196  and  _197
REMARK   82  A    between atoms: _197  and  _198
REMARK   83  A    between atoms: _203  and  _205
REMARK   84  A    between atoms: _205  and  _206
REMARK   85  A    between atoms: _208  and  _210
REMARK   86  A    between atoms: _210  and  _211
REMARK   87  A    between atoms: _210  and  _213
REMARK   88  A    between atoms: _213  and  _214
REMARK   89  A    between atoms: _214  and  _215
REMARK   90  A    between atoms: _215  and  _216
REMARK   91  A    between atoms: _216  and  _217
REMARK   92  A    between atoms: _221  and  _223
REMARK   93  A    between atoms: _223  and  _224
REMARK   94  A    between atoms: _223  and  _226
REMARK   95  A    between atoms: _226  and  _227
REMARK   96  A    between atoms: _237  and  _239
REMARK   97  A    between atoms: _239  and  _240
REMARK   98  A    between atoms: _239  and  _242
REMARK   99  A    between atoms: _242  and  _243
REMARK  100  A    between atoms: _246  and  _248
REMARK  101  A    between atoms: _248  and  _249
REMARK  102  A    between atoms: _248  and  _251
REMARK  103  A    between atoms: _251  and  _252
REMARK  104  A    between atoms: _252  and  _253
REMARK  105  A    between atoms: _253  and  _254
REMARK  106  A    between atoms: _254  and  _255
REMARK  107  A    between atoms: _259  and  _261
REMARK  108  A    between atoms: _261  and  _262
REMARK  109  A    between atoms: _261  and  _264
REMARK  110  A    between atoms: _264  and  _265
REMARK  111  A    between atoms: _271  and  _273
REMARK  112  A    between atoms: _273  and  _274
REMARK  113  A    between atoms: _273  and  _276
REMARK  114  A    between atoms: _276  and  _277
REMARK  115  A    between atoms: _283  and  _285
REMARK  116  A    between atoms: _285  and  _286
REMARK  117  A    between atoms: _285  and  _288
REMARK  118  A    between atoms: _288  and  _289
REMARK  119  A    between atoms: _292  and  _294
REMARK  120  A    between atoms: _294  and  _295
REMARK  121  A    between atoms: _294  and  _297
REMARK  122  A    between atoms: _297  and  _298
REMARK  123  A    between atoms: _300  and  _302
REMARK  124  A    between atoms: _302  and  _303
REMARK  125  A    between atoms: _302  and  _305
REMARK  126  A    between atoms: _305  and  _306
REMARK  127  A    between atoms: _316  and  _318
REMARK  128  A    between atoms: _318  and  _319
REMARK  129  A    between atoms: _321  and  _323
REMARK  130  A    between atoms: _323  and  _324
REMARK  131  A    between atoms: _323  and  _326
REMARK  132  A    between atoms: _326  and  _327
REMARK  133  A    between atoms: _330  and  _332
REMARK  134  A    between atoms: _332  and  _333
REMARK  135  A    between atoms: _335  and  _337
REMARK  136  A    between atoms: _337  and  _338
REMARK  137  A    between atoms: _337  and  _340
REMARK  138  A    between atoms: _340  and  _341
REMARK  139  A    between atoms: _344  and  _346
REMARK  140  A    between atoms: _346  and  _347
REMARK  141  A    between atoms: _350  and  _352
REMARK  142  A    between atoms: _352  and  _353
REMARK  143  A    between atoms: _352  and  _355
REMARK  144  A    between atoms: _355  and  _356
REMARK  145  A    between atoms: _361  and  _362
REMARK  146  A    between atoms: _364  and  _366
REMARK  147  A    between atoms: _366  and  _367
REMARK  148  A    between atoms: _366  and  _369
REMARK  149  A    between atoms: _369  and  _370
REMARK  150  A    between atoms: _370  and  _371
REMARK  151  A    between atoms: _374  and  _376
REMARK  152  A    between atoms: _376  and  _377
REMARK  153  A    between atoms: _376  and  _379
REMARK  154  A    between atoms: _379  and  _380
REMARK  155  A    between atoms: _383  and  _385
REMARK  156  A    between atoms: _385  and  _386
REMARK  157  A    between atoms: _389  and  _391
REMARK  158  A    between atoms: _391  and  _392
REMARK  159  A    between atoms: _391  and  _394
REMARK  160  A    between atoms: _394  and  _395
REMARK  161  A    between atoms: _395  and  _396
REMARK  162  A    between atoms: _396  and  _397
REMARK  163  A    between atoms: _406  and  _408
REMARK  164  A    between atoms: _408  and  _409
REMARK  165  A    between atoms: _408  and  _411
REMARK  166  A    between atoms: _411  and  _412
REMARK  167  A    between atoms: _415  and  _417
REMARK  168  A    between atoms: _417  and  _418
REMARK  169  A    between atoms: _417  and  _420
REMARK  170  A    between atoms: _420  and  _421
REMARK  171  A    between atoms: _431  and  _433
REMARK  172  A    between atoms: _433  and  _434
REMARK  173  A    between atoms: _433  and  _436
REMARK  174  A    between atoms: _436  and  _437
REMARK  175  A    between atoms: _442  and  _443
REMARK  176  A    between atoms: _445  and  _447
REMARK  177  A    between atoms: _447  and  _448
REMARK  178  A    between atoms: _447  and  _450
REMARK  179  A    between atoms: _450  and  _451
REMARK  180  A    between atoms: _451  and  _452
REMARK  181  A    between atoms: _452  and  _453
REMARK  182  A    between atoms: _453  and  _454
REMARK  183  A    between atoms: _458  and  _460
REMARK  184  A    between atoms: _460  and  _461
REMARK  185  A    between atoms: _460  and  _463
REMARK  186  A    between atoms: _463  and  _464
REMARK  187  A    between atoms: _467  and  _469
REMARK  188  A    between atoms: _469  and  _470
REMARK  189  A    between atoms: _469  and  _472
REMARK  190  A    between atoms: _475  and  _477
REMARK  191  A    between atoms: _477  and  _478
REMARK  192  A    between atoms: _477  and  _480
REMARK  193  A    between atoms: _480  and  _481
REMARK  194  A    between atoms: _484  and  _486
REMARK  195  A    between atoms: _486  and  _487
REMARK  196  A    between atoms: _486  and  _489
REMARK  197  A    between atoms: _489  and  _490
REMARK  198  A    between atoms: _492  and  _494
REMARK  199  A    between atoms: _494  and  _495
REMARK  200  A    between atoms: _497  and  _499
REMARK  201  A    between atoms: _499  and  _500
REMARK  202  A    between atoms: _499  and  _502
REMARK  203  A    between atoms: _502  and  _503
REMARK  204  A    between atoms: _506  and  _508
REMARK  205  A    between atoms: _508  and  _509
REMARK  206  A    between atoms: _508  and  _511
REMARK  207  A    between atoms: _511  and  _512
REMARK  208  A    between atoms: _515  and  _517
REMARK  209  A    between atoms: _517  and  _518
REMARK  210  A    between atoms: _517  and  _520
REMARK  211  A    between atoms: _520  and  _521
REMARK  212  A    between atoms: _526  and  _528
REMARK  213  A    between atoms: _528  and  _529
REMARK  214  A    between atoms: _528  and  _531
REMARK  215  A    between atoms: _531  and  _532
REMARK  216  A    between atoms: _535  and  _537
REMARK  217  A    between atoms: _537  and  _538
REMARK  218  A    between atoms: _537  and  _540
REMARK  219  A    between atoms: _540  and  _541
REMARK  220  A    between atoms: _541  and  _542
REMARK  221  A    between atoms: _542  and  _543
REMARK  222  A    between atoms: _552  and  _554
REMARK  223  A    between atoms: _554  and  _555
REMARK  224  A    between atoms: _554  and  _557
REMARK  225  A    between atoms: _557  and  _558
REMARK  226  A    between atoms: _558  and  _559
REMARK  227  A    between atoms: _559  and  _560
REMARK  228  A    between atoms: _569  and  _571
REMARK  229  A    between atoms: _571  and  _572
REMARK  230  A    between atoms: _571  and  _574
REMARK  231  A    between atoms: _574  and  _575
REMARK  232  A    between atoms: _575  and  _576
REMARK  233  A    between atoms: _576  and  _577
REMARK  234  A    between atoms: _577  and  _578
REMARK  235  A    between atoms: _582  and  _584
REMARK  236  A    between atoms: _584  and  _585
REMARK  237  A    between atoms: _584  and  _587
REMARK  238  A    between atoms: _587  and  _588
REMARK  239  A    between atoms: _590  and  _592
REMARK  240  A    between atoms: _592  and  _593
REMARK  241  A    between atoms: _592  and  _595
REMARK  242  A    between atoms: _595  and  _596
REMARK  243  A    between atoms: _599  and  _601
REMARK  244  A    between atoms: _601  and  _602
REMARK  245  A    between atoms: _601  and  _604
REMARK  246  A    between atoms: _607  and  _609
REMARK  247  A    between atoms: _609  and  _610
REMARK  248  A    between atoms: _612  and  _614
REMARK  249  A    between atoms: _614  and  _615
REMARK                            x       y       z     vdW  Elec       q    Type
REMARK                         _______ _______ _______ _____ _____    ______ ____
ROOT
ATOM      1  O   HOH     1      28.261  -0.452   2.381  0.00  0.00    +0.000 OA
ENDROOT
TORSDOF 0
REMARK  Name = ../refined-set-2016/3ckp/3ckp_pocket.pdb
REMARK  249 active torsions:
REMARK  status: ('A' for Active; 'I' for Inactive)
REMARK    1  A    between atoms: _1  and  _3
REMARK    2  A    between atoms: _3  and  _4
REMARK    3  A    between atoms: _3  and  _6
REMARK    4  A    between atoms: _6  and  _7
REMARK    5  A    between atoms: _7  and  _8
REMARK    6  A    between atoms: _8  and  _9
REMARK    7  A    between atoms: _9  and  _10
REMARK    8  A    between atoms: _14  and  _16
REMARK    9  A    between atoms: _16  and  _17
REMARK   10  A    between atoms: _16  and  _19
REMARK   11  A    between atoms: _19  and  _20
REMARK   12  A    between atoms: _22  and  _24
REMARK   13  A    between atoms: _24  and  _25
REMARK   14  A    between atoms: _27  and  _29
REMARK   15  A    between atoms: _29  and  _30
REMARK   16  A    between atoms: _29  and  _32
REMARK   17  A    between atoms: _32  and  _33
REMARK   18  A    between atoms: _33  and  _34
REMARK   19  A    between atoms: _39  and  _41
REMARK   20  A    between atoms: _41  and  _42
REMARK   21  A    between atoms: _44  and  _46
REMARK   22  A    between atoms: _46  and  _47
REMARK   23  A    between atoms: _46  and  _49
REMARK   24  A    between atoms: _49  and  _50
REMARK   25  A    between atoms: _55  and  _56
REMARK   26  A    between atoms: _58  and  _60
REMARK   27  A    between atoms: _60  and  _61
REMARK   28  A    between atoms: _60  and  _63
REMARK   29  A    between atoms: _63  and  _64
REMARK   30  A    between atoms: _69  and  _70
REMARK   31  A    between atoms: _72  and  _74
REMARK   32  A    between atoms: _74  and  _75
REMARK   33  A    between atoms: _74  and  _77
REMARK   34  A    between atoms: _77  and  _78
REMARK   35  A    between atoms: _81  and  _83
REMARK   36  A    between atoms: _83  and  _84
REMARK   37  A    between atoms: _83  and  _86
REMARK   38  A    between atoms: _89  and  _91
REMARK   39  A    between atoms: _91  and  _92
REMARK   40  A    between atoms: _91  and  _94
REMARK   41  A    between atoms: _94  and  _95
REMARK   42  A    between atoms: _98  and  _100
REMARK   43  A    between atoms: _100  and  _101
REMARK   44  A    between atoms: _100  and  _103
REMARK   45  A    between atoms: _103  and  _104
REMARK   46  A    between atoms: _107  and  _109
REMARK   47  A    between atoms: _109  and  _110
REMARK   48  A    between atoms: _112  and  _114
REMARK   49  A    between atoms: _114  and  _115
REMARK   50  A    between atoms: _114  and  _117
REMARK   51  A    between atoms: _117  and  _118
REMARK   52  A    between atoms: _120  and  _122
REMARK   53  A    between atoms: _122  and  _123
REMARK   54  A    between atoms: _122  and  _125
REMARK   55  A    between atoms: _125  and  _126
REMARK   56  A    between atoms: _128  and  _130
REMARK   57  A    between atoms: _130  and  _131
REMARK   58  A    between atoms: _130  and  _133
REMARK   59  A    between atoms: _133  and  _134
REMARK   60  A    between atoms: _139  and  _141
REMARK   61  A    between atoms: _141  and  _142
REMARK   62  A    between atoms: _141  and  _144
REMARK   63  A    between atoms: _144  and  _145
REMARK   64  A    between atoms: _150  and  _151
REMARK   65  A    between atoms: _153  and  _155
REMARK   66  A    between atoms: _155  and  _156
REMARK   67  A    between atoms: _155  and  _158
REMARK   68  A    between atoms: _162  and  _163
REMARK   69  A    between atoms: _168  and  _170
REMARK   70  A    between atoms: _170  and  _171
REMARK   71  A    between atoms: _170  and  _173
REMARK   72  A    between atoms: _173  and  _174
REMARK   73  A    between atoms: _179  and  _180
REMARK   74  A    between atoms: _182  and  _184
REMARK   75  A    between atoms: _184  and  _185
REMARK   76  A    between atoms: _184  and  _187
REMARK   77  A    between atoms: _187  and  _188
REMARK   78  A    between atoms: _191  and  _193
REMARK   79  A    between atoms: _193  and  _194
REMARK   80  A    between atoms: _193  and  _196
REMARK   81  A    between atoms: _196  and  _197
REMARK   82  A    between atoms: _197  and  _198
REMARK   83  A    between atoms: _203  and  _205
REMARK   84  A    between atoms: _205  and  _206
REMARK   85  A    between atoms: _208  and  _210
REMARK   86  A    between atoms: _210  and  _211
REMARK   87  A    between atoms: _210  and  _213
REMARK   88  A    between atoms: _213  and  _214
REMARK   89  A    between atoms: _214  and  _215
REMARK   90  A    between atoms: _215  and  _216
REMARK   91  A    between atoms: _216  and  _217
REMARK   92  A    between atoms: _221  and  _223
REMARK   93  A    between atoms: _223  and  _224
REMARK   94  A    between atoms: _223  and  _226
REMARK   95  A    between atoms: _226  and  _227
REMARK   96  A    between atoms: _237  and  _239
REMARK   97  A    between atoms: _239  and  _240
REMARK   98  A    between atoms: _239  and  _242
REMARK   99  A    between atoms: _242  and  _243
REMARK  100  A    between atoms: _246  and  _248
REMARK  101  A    between atoms: _248  and  _249
REMARK  102  A    between atoms: _248  and  _251
REMARK  103  A    between atoms: _251  and  _252
REMARK  104  A    between atoms: _252  and  _253
REMARK  105  A    between atoms: _253  and  _254
REMARK  106  A    between atoms: _254  and  _255
REMARK  107  A    between atoms: _259  and  _261
REMARK  108  A    between atoms: _261  and  _262
REMARK  109  A    between atoms: _261  and  _264
REMARK  110  A    between atoms: _264  and  _265
REMARK  111  A    between atoms: _271  and  _273
REMARK  112  A    between atoms: _273  and  _274
REMARK  113  A    between atoms: _273  and  _276
REMARK  114  A    between atoms: _276  and  _277
REMARK  115  A    between atoms: _283  and  _285
REMARK  116  A    between atoms: _285  and  _286
REMARK  117  A    between atoms: _285  and  _288
REMARK  118  A    between atoms: _288  and  _289
REMARK  119  A    between atoms: _292  and  _294
REMARK  120  A    between atoms: _294  and  _295
REMARK  121  A    between atoms: _294  and  _297
REMARK  122  A    between atoms: _297  and  _298
REMARK  123  A    between atoms: _300  and  _302
REMARK  124  A    between atoms: _302  and  _303
REMARK  125  A    between atoms: _302  and  _305
REMARK  126  A    between atoms: _305  and  _306
REMARK  127  A    between atoms: _316  and  _318
REMARK  128  A    between atoms: _318  and  _319
REMARK  129  A    between atoms: _321  and  _323
REMARK  130  A    between atoms: _323  and  _324
REMARK  131  A    between atoms: _323  and  _326
REMARK  132  A    between atoms: _326  and  _327
REMARK  133  A    between atoms: _330  and  _332
REMARK  134  A    between atoms: _332  and  _333
REMARK  135  A    between atoms: _335  and  _337
REMARK  136  A    between atoms: _337  and  _338
REMARK  137  A    between atoms: _337  and  _340
REMARK  138  A    between atoms: _340  and  _341
REMARK  139  A    between atoms: _344  and  _346
REMARK  140  A    between atoms: _346  and  _347
REMARK  141  A    between atoms: _350  and  _352
REMARK  142  A    between atoms: _352  and  _353
REMARK  143  A    between atoms: _352  and  _355
REMARK  144  A    between atoms: _355  and  _356
REMARK  145  A    between atoms: _361  and  _362
REMARK  146  A    between atoms: _364  and  _366
REMARK  147  A    between atoms: _366  and  _367
REMARK  148  A    between atoms: _366  and  _369
REMARK  149  A    between atoms: _369  and  _370
REMARK  150  A    between atoms: _370  and  _371
REMARK  151  A    between atoms: _374  and  _376
REMARK  152  A    between atoms: _376  and  _377
REMARK  153  A    between atoms: _376  and  _379
REMARK  154  A    between atoms: _379  and  _380
REMARK  155  A    between atoms: _383  and  _385
REMARK  156  A    between atoms: _385  and  _386
REMARK  157  A    between atoms: _389  and  _391
REMARK  158  A    between atoms: _391  and  _392
REMARK  159  A    between atoms: _391  and  _394
REMARK  160  A    between atoms: _394  and  _395
REMARK  161  A    between atoms: _395  and  _396
REMARK  162  A    between atoms: _396  and  _397
REMARK  163  A    between atoms: _406  and  _408
REMARK  164  A    between atoms: _408  and  _409
REMARK  165  A    between atoms: _408  and  _411
REMARK  166  A    between atoms: _411  and  _412
REMARK  167  A    between atoms: _415  and  _417
REMARK  168  A    between atoms: _417  and  _418
REMARK  169  A    between atoms: _417  and  _420
REMARK  170  A    between atoms: _420  and  _421
REMARK  171  A    between atoms: _431  and  _433
REMARK  172  A    between atoms: _433  and  _434
REMARK  173  A    between atoms: _433  and  _436
REMARK  174  A    between atoms: _436  and  _437
REMARK  175  A    between atoms: _442  and  _443
REMARK  176  A    between atoms: _445  and  _447
REMARK  177  A    between atoms: _447  and  _448
REMARK  178  A    between atoms: _447  and  _450
REMARK  179  A    between atoms: _450  and  _451
REMARK  180  A    between atoms: _451  and  _452
REMARK  181  A    between atoms: _452  and  _453
REMARK  182  A    between atoms: _453  and  _454
REMARK  183  A    between atoms: _458  and  _460
REMARK  184  A    between atoms: _460  and  _461
REMARK  185  A    between atoms: _460  and  _463
REMARK  186  A    between atoms: _463  and  _464
REMARK  187  A    between atoms: _467  and  _469
REMARK  188  A    between atoms: _469  and  _470
REMARK  189  A    between atoms: _469  and  _472
REMARK  190  A    between atoms: _475  and  _477
REMARK  191  A    between atoms: _477  and  _478
REMARK  192  A    between atoms: _477  and  _480
REMARK  193  A    between atoms: _480  and  _481
REMARK  194  A    between atoms: _484  and  _486
REMARK  195  A    between atoms: _486  and  _487
REMARK  196  A    between atoms: _486  and  _489
REMARK  197  A    between atoms: _489  and  _490
REMARK  198  A    between atoms: _492  and  _494
REMARK  199  A    between atoms: _494  and  _495
REMARK  200  A    between atoms: _497  and  _499
REMARK  201  A    between atoms: _499  and  _500
REMARK  202  A    between atoms: _499  and  _502
REMARK  203  A    between atoms: _502  and  _503
REMARK  204  A    between atoms: _506  and  _508
REMARK  205  A    between atoms: _508  and  _509
REMARK  206  A    between atoms: _508  and  _511
REMARK  207  A    between atoms: _511  and  _512
REMARK  208  A    between atoms: _515  and  _517
REMARK  209  A    between atoms: _517  and  _518
REMARK  210  A    between atoms: _517  and  _520
REMARK  211  A    between atoms: _520  and  _521
REMARK  212  A    between atoms: _526  and  _528
REMARK  213  A    between atoms: _528  and  _529
REMARK  214  A    between atoms: _528  and  _531
REMARK  215  A    between atoms: _531  and  _532
REMARK  216  A    between atoms: _535  and  _537
REMARK  217  A    between atoms: _537  and  _538
REMARK  218  A    between atoms: _537  and  _540
REMARK  219  A    between atoms: _540  and  _541
REMARK  220  A    between atoms: _541  and  _542
REMARK  221  A    between atoms: _542  and  _543
REMARK  222  A    between atoms: _552  and  _554
REMARK  223  A    between atoms: _554  and  _555
REMARK  224  A    between atoms: _554  and  _557
REMARK  225  A    between atoms: _557  and  _558
REMARK  226  A    between atoms: _558  and  _559
REMARK  227  A    between atoms: _559  and  _560
REMARK  228  A    between atoms: _569  and  _571
REMARK  229  A    between atoms: _571  and  _572
REMARK  230  A    between atoms: _571  and  _574
REMARK  231  A    between atoms: _574  and  _575
REMARK  232  A    between atoms: _575  and  _576
REMARK  233  A    between atoms: _576  and  _577
REMARK  234  A    between atoms: _577  and  _578
REMARK  235  A    between atoms: _582  and  _584
REMARK  236  A    between atoms: _584  and  _585
REMARK  237  A    between atoms: _584  and  _587
REMARK  238  A    between atoms: _587  and  _588
REMARK  239  A    between atoms: _590  and  _592
REMARK  240  A    between atoms: _592  and  _593
REMARK  241  A    between atoms: _592  and  _595
REMARK  242  A    between atoms: _595  and  _596
REMARK  243  A    between atoms: _599  and  _601
REMARK  244  A    between atoms: _601  and  _602
REMARK  245  A    between atoms: _601  and  _604
REMARK  246  A    between atoms: _607  and  _609
REMARK  247  A    between atoms: _609  and  _610
REMARK  248  A    between atoms: _612  and  _614
REMARK  249  A    between atoms: _614  and  _615
REMARK                            x       y       z     vdW  Elec       q    Type
REMARK                         _______ _______ _______ _____ _____    ______ ____
ROOT
ATOM      1  O   HOH     1      36.349  -0.091   9.727  0.00  0.00    +0.000 OA
ENDROOT
TORSDOF 0
REMARK  Name = ../refined-set-2016/3ckp/3ckp_pocket.pdb
REMARK  249 active torsions:
REMARK  status: ('A' for Active; 'I' for Inactive)
REMARK    1  A    between atoms: _1  and  _3
REMARK    2  A    between atoms: _3  and  _4
REMARK    3  A    between atoms: _3  and  _6
REMARK    4  A    between atoms: _6  and  _7
REMARK    5  A    between atoms: _7  and  _8
REMARK    6  A    between atoms: _8  and  _9
REMARK    7  A    between atoms: _9  and  _10
REMARK    8  A    between atoms: _14  and  _16
REMARK    9  A    between atoms: _16  and  _17
REMARK   10  A    between atoms: _16  and  _19
REMARK   11  A    between atoms: _19  and  _20
REMARK   12  A    between atoms: _22  and  _24
REMARK   13  A    between atoms: _24  and  _25
REMARK   14  A    between atoms: _27  and  _29
REMARK   15  A    between atoms: _29  and  _30
REMARK   16  A    between atoms: _29  and  _32
REMARK   17  A    between atoms: _32  and  _33
REMARK   18  A    between atoms: _33  and  _34
REMARK   19  A    between atoms: _39  and  _41
REMARK   20  A    between atoms: _41  and  _42
REMARK   21  A    between atoms: _44  and  _46
REMARK   22  A    between atoms: _46  and  _47
REMARK   23  A    between atoms: _46  and  _49
REMARK   24  A    between atoms: _49  and  _50
REMARK   25  A    between atoms: _55  and  _56
REMARK   26  A    between atoms: _58  and  _60
REMARK   27  A    between atoms: _60  and  _61
REMARK   28  A    between atoms: _60  and  _63
REMARK   29  A    between atoms: _63  and  _64
REMARK   30  A    between atoms: _69  and  _70
REMARK   31  A    between atoms: _72  and  _74
REMARK   32  A    between atoms: _74  and  _75
REMARK   33  A    between atoms: _74  and  _77
REMARK   34  A    between atoms: _77  and  _78
REMARK   35  A    between atoms: _81  and  _83
REMARK   36  A    between atoms: _83  and  _84
REMARK   37  A    between atoms: _83  and  _86
REMARK   38  A    between atoms: _89  and  _91
REMARK   39  A    between atoms: _91  and  _92
REMARK   40  A    between atoms: _91  and  _94
REMARK   41  A    between atoms: _94  and  _95
REMARK   42  A    between atoms: _98  and  _100
REMARK   43  A    between atoms: _100  and  _101
REMARK   44  A    between atoms: _100  and  _103
REMARK   45  A    between atoms: _103  and  _104
REMARK   46  A    between atoms: _107  and  _109
REMARK   47  A    between atoms: _109  and  _110
REMARK   48  A    between atoms: _112  and  _114
REMARK   49  A    between atoms: _114  and  _115
REMARK   50  A    between atoms: _114  and  _117
REMARK   51  A    between atoms: _117  and  _118
REMARK   52  A    between atoms: _120  and  _122
REMARK   53  A    between atoms: _122  and  _123
REMARK   54  A    between atoms: _122  and  _125
REMARK   55  A    between atoms: _125  and  _126
REMARK   56  A    between atoms: _128  and  _130
REMARK   57  A    between atoms: _130  and  _131
REMARK   58  A    between atoms: _130  and  _133
REMARK   59  A    between atoms: _133  and  _134
REMARK   60  A    between atoms: _139  and  _141
REMARK   61  A    between atoms: _141  and  _142
REMARK   62  A    between atoms: _141  and  _144
REMARK   63  A    between atoms: _144  and  _145
REMARK   64  A    between atoms: _150  and  _151
REMARK   65  A    between atoms: _153  and  _155
REMARK   66  A    between atoms: _155  and  _156
REMARK   67  A    between atoms: _155  and  _158
REMARK   68  A    between atoms: _162  and  _163
REMARK   69  A    between atoms: _168  and  _170
REMARK   70  A    between atoms: _170  and  _171
REMARK   71  A    between atoms: _170  and  _173
REMARK   72  A    between atoms: _173  and  _174
REMARK   73  A    between atoms: _179  and  _180
REMARK   74  A    between atoms: _182  and  _184
REMARK   75  A    between atoms: _184  and  _185
REMARK   76  A    between atoms: _184  and  _187
REMARK   77  A    between atoms: _187  and  _188
REMARK   78  A    between atoms: _191  and  _193
REMARK   79  A    between atoms: _193  and  _194
REMARK   80  A    between atoms: _193  and  _196
REMARK   81  A    between atoms: _196  and  _197
REMARK   82  A    between atoms: _197  and  _198
REMARK   83  A    between atoms: _203  and  _205
REMARK   84  A    between atoms: _205  and  _206
REMARK   85  A    between atoms: _208  and  _210
REMARK   86  A    between atoms: _210  and  _211
REMARK   87  A    between atoms: _210  and  _213
REMARK   88  A    between atoms: _213  and  _214
REMARK   89  A    between atoms: _214  and  _215
REMARK   90  A    between atoms: _215  and  _216
REMARK   91  A    between atoms: _216  and  _217
REMARK   92  A    between atoms: _221  and  _223
REMARK   93  A    between atoms: _223  and  _224
REMARK   94  A    between atoms: _223  and  _226
REMARK   95  A    between atoms: _226  and  _227
REMARK   96  A    between atoms: _237  and  _239
REMARK   97  A    between atoms: _239  and  _240
REMARK   98  A    between atoms: _239  and  _242
REMARK   99  A    between atoms: _242  and  _243
REMARK  100  A    between atoms: _246  and  _248
REMARK  101  A    between atoms: _248  and  _249
REMARK  102  A    between atoms: _248  and  _251
REMARK  103  A    between atoms: _251  and  _252
REMARK  104  A    between atoms: _252  and  _253
REMARK  105  A    between atoms: _253  and  _254
REMARK  106  A    between atoms: _254  and  _255
REMARK  107  A    between atoms: _259  and  _261
REMARK  108  A    between atoms: _261  and  _262
REMARK  109  A    between atoms: _261  and  _264
REMARK  110  A    between atoms: _264  and  _265
REMARK  111  A    between atoms: _271  and  _273
REMARK  112  A    between atoms: _273  and  _274
REMARK  113  A    between atoms: _273  and  _276
REMARK  114  A    between atoms: _276  and  _277
REMARK  115  A    between atoms: _283  and  _285
REMARK  116  A    between atoms: _285  and  _286
REMARK  117  A    between atoms: _285  and  _288
REMARK  118  A    between atoms: _288  and  _289
REMARK  119  A    between atoms: _292  and  _294
REMARK  120  A    between atoms: _294  and  _295
REMARK  121  A    between atoms: _294  and  _297
REMARK  122  A    between atoms: _297  and  _298
REMARK  123  A    between atoms: _300  and  _302
REMARK  124  A    between atoms: _302  and  _303
REMARK  125  A    between atoms: _302  and  _305
REMARK  126  A    between atoms: _305  and  _306
REMARK  127  A    between atoms: _316  and  _318
REMARK  128  A    between atoms: _318  and  _319
REMARK  129  A    between atoms: _321  and  _323
REMARK  130  A    between atoms: _323  and  _324
REMARK  131  A    between atoms: _323  and  _326
REMARK  132  A    between atoms: _326  and  _327
REMARK  133  A    between atoms: _330  and  _332
REMARK  134  A    between atoms: _332  and  _333
REMARK  135  A    between atoms: _335  and  _337
REMARK  136  A    between atoms: _337  and  _338
REMARK  137  A    between atoms: _337  and  _340
REMARK  138  A    between atoms: _340  and  _341
REMARK  139  A    between atoms: _344  and  _346
REMARK  140  A    between atoms: _346  and  _347
REMARK  141  A    between atoms: _350  and  _352
REMARK  142  A    between atoms: _352  and  _353
REMARK  143  A    between atoms: _352  and  _355
REMARK  144  A    between atoms: _355  and  _356
REMARK  145  A    between atoms: _361  and  _362
REMARK  146  A    between atoms: _364  and  _366
REMARK  147  A    between atoms: _366  and  _367
REMARK  148  A    between atoms: _366  and  _369
REMARK  149  A    between atoms: _369  and  _370
REMARK  150  A    between atoms: _370  and  _371
REMARK  151  A    between atoms: _374  and  _376
REMARK  152  A    between atoms: _376  and  _377
REMARK  153  A    between atoms: _376  and  _379
REMARK  154  A    between atoms: _379  and  _380
REMARK  155  A    between atoms: _383  and  _385
REMARK  156  A    between atoms: _385  and  _386
REMARK  157  A    between atoms: _389  and  _391
REMARK  158  A    between atoms: _391  and  _392
REMARK  159  A    between atoms: _391  and  _394
REMARK  160  A    between atoms: _394  and  _395
REMARK  161  A    between atoms: _395  and  _396
REMARK  162  A    between atoms: _396  and  _397
REMARK  163  A    between atoms: _406  and  _408
REMARK  164  A    between atoms: _408  and  _409
REMARK  165  A    between atoms: _408  and  _411
REMARK  166  A    between atoms: _411  and  _412
REMARK  167  A    between atoms: _415  and  _417
REMARK  168  A    between atoms: _417  and  _418
REMARK  169  A    between atoms: _417  and  _420
REMARK  170  A    between atoms: _420  and  _421
REMARK  171  A    between atoms: _431  and  _433
REMARK  172  A    between atoms: _433  and  _434
REMARK  173  A    between atoms: _433  and  _436
REMARK  174  A    between atoms: _436  and  _437
REMARK  175  A    between atoms: _442  and  _443
REMARK  176  A    between atoms: _445  and  _447
REMARK  177  A    between atoms: _447  and  _448
REMARK  178  A    between atoms: _447  and  _450
REMARK  179  A    between atoms: _450  and  _451
REMARK  180  A    between atoms: _451  and  _452
REMARK  181  A    between atoms: _452  and  _453
REMARK  182  A    between atoms: _453  and  _454
REMARK  183  A    between atoms: _458  and  _460
REMARK  184  A    between atoms: _460  and  _461
REMARK  185  A    between atoms: _460  and  _463
REMARK  186  A    between atoms: _463  and  _464
REMARK  187  A    between atoms: _467  and  _469
REMARK  188  A    between atoms: _469  and  _470
REMARK  189  A    between atoms: _469  and  _472
REMARK  190  A    between atoms: _475  and  _477
REMARK  191  A    between atoms: _477  and  _478
REMARK  192  A    between atoms: _477  and  _480
REMARK  193  A    between atoms: _480  and  _481
REMARK  194  A    between atoms: _484  and  _486
REMARK  195  A    between atoms: _486  and  _487
REMARK  196  A    between atoms: _486  and  _489
REMARK  197  A    between atoms: _489  and  _490
REMARK  198  A    between atoms: _492  and  _494
REMARK  199  A    between atoms: _494  and  _495
REMARK  200  A    between atoms: _497  and  _499
REMARK  201  A    between atoms: _499  and  _500
REMARK  202  A    between atoms: _499  and  _502
REMARK  203  A    between atoms: _502  and  _503
REMARK  204  A    between atoms: _506  and  _508
REMARK  205  A    between atoms: _508  and  _509
REMARK  206  A    between atoms: _508  and  _511
REMARK  207  A    between atoms: _511  and  _512
REMARK  208  A    between atoms: _515  and  _517
REMARK  209  A    between atoms: _517  and  _518
REMARK  210  A    between atoms: _517  and  _520
REMARK  211  A    between atoms: _520  and  _521
REMARK  212  A    between atoms: _526  and  _528
REMARK  213  A    between atoms: _528  and  _529
REMARK  214  A    between atoms: _528  and  _531
REMARK  215  A    between atoms: _531  and  _532
REMARK  216  A    between atoms: _535  and  _537
REMARK  217  A    between atoms: _537  and  _538
REMARK  218  A    between atoms: _537  and  _540
REMARK  219  A    between atoms: _540  and  _541
REMARK  220  A    between atoms: _541  and  _542
REMARK  221  A    between atoms: _542  and  _543
REMARK  222  A    between atoms: _552  and  _554
REMARK  223  A    between atoms: _554  and  _555
REMARK  224  A    between atoms: _554  and  _557
REMARK  225  A    between atoms: _557  and  _558
REMARK  226  A    between atoms: _558  and  _559
REMARK  227  A    between atoms: _559  and  _560
REMARK  228  A    between atoms: _569  and  _571
REMARK  229  A    between atoms: _571  and  _572
REMARK  230  A    between atoms: _571  and  _574
REMARK  231  A    between atoms: _574  and  _575
REMARK  232  A    between atoms: _575  and  _576
REMARK  233  A    between atoms: _576  and  _577
REMARK  234  A    between atoms: _577  and  _578
REMARK  235  A    between atoms: _582  and  _584
REMARK  236  A    between atoms: _584  and  _585
REMARK  237  A    between atoms: _584  and  _587
REMARK  238  A    between atoms: _587  and  _588
REMARK  239  A    between atoms: _590  and  _592
REMARK  240  A    between atoms: _592  and  _593
REMARK  241  A    between atoms: _592  and  _595
REMARK  242  A    between atoms: _595  and  _596
REMARK  243  A    between atoms: _599  and  _601
REMARK  244  A    between atoms: _601  and  _602
REMARK  245  A    between atoms: _601  and  _604
REMARK  246  A    between atoms: _607  and  _609
REMARK  247  A    between atoms: _609  and  _610
REMARK  248  A    between atoms: _612  and  _614
REMARK  249  A    between atoms: _614  and  _615
REMARK                            x       y       z     vdW  Elec       q    Type
REMARK                         _______ _______ _______ _____ _____    ______ ____
ROOT
ATOM      1  O   HOH     1      27.416   8.148   5.942  0.00  0.00    +0.000 OA
ENDROOT
TORSDOF 0
REMARK  Name = ../refined-set-2016/3ckp/3ckp_pocket.pdb
REMARK  249 active torsions:
REMARK  status: ('A' for Active; 'I' for Inactive)
REMARK    1  A    between atoms: _1  and  _3
REMARK    2  A    between atoms: _3  and  _4
REMARK    3  A    between atoms: _3  and  _6
REMARK    4  A    between atoms: _6  and  _7
REMARK    5  A    between atoms: _7  and  _8
REMARK    6  A    between atoms: _8  and  _9
REMARK    7  A    between atoms: _9  and  _10
REMARK    8  A    between atoms: _14  and  _16
REMARK    9  A    between atoms: _16  and  _17
REMARK   10  A    between atoms: _16  and  _19
REMARK   11  A    between atoms: _19  and  _20
REMARK   12  A    between atoms: _22  and  _24
REMARK   13  A    between atoms: _24  and  _25
REMARK   14  A    between atoms: _27  and  _29
REMARK   15  A    between atoms: _29  and  _30
REMARK   16  A    between atoms: _29  and  _32
REMARK   17  A    between atoms: _32  and  _33
REMARK   18  A    between atoms: _33  and  _34
REMARK   19  A    between atoms: _39  and  _41
REMARK   20  A    between atoms: _41  and  _42
REMARK   21  A    between atoms: _44  and  _46
REMARK   22  A    between atoms: _46  and  _47
REMARK   23  A    between atoms: _46  and  _49
REMARK   24  A    between atoms: _49  and  _50
REMARK   25  A    between atoms: _55  and  _56
REMARK   26  A    between atoms: _58  and  _60
REMARK   27  A    between atoms: _60  and  _61
REMARK   28  A    between atoms: _60  and  _63
REMARK   29  A    between atoms: _63  and  _64
REMARK   30  A    between atoms: _69  and  _70
REMARK   31  A    between atoms: _72  and  _74
REMARK   32  A    between atoms: _74  and  _75
REMARK   33  A    between atoms: _74  and  _77
REMARK   34  A    between atoms: _77  and  _78
REMARK   35  A    between atoms: _81  and  _83
REMARK   36  A    between atoms: _83  and  _84
REMARK   37  A    between atoms: _83  and  _86
REMARK   38  A    between atoms: _89  and  _91
REMARK   39  A    between atoms: _91  and  _92
REMARK   40  A    between atoms: _91  and  _94
REMARK   41  A    between atoms: _94  and  _95
REMARK   42  A    between atoms: _98  and  _100
REMARK   43  A    between atoms: _100  and  _101
REMARK   44  A    between atoms: _100  and  _103
REMARK   45  A    between atoms: _103  and  _104
REMARK   46  A    between atoms: _107  and  _109
REMARK   47  A    between atoms: _109  and  _110
REMARK   48  A    between atoms: _112  and  _114
REMARK   49  A    between atoms: _114  and  _115
REMARK   50  A    between atoms: _114  and  _117
REMARK   51  A    between atoms: _117  and  _118
REMARK   52  A    between atoms: _120  and  _122
REMARK   53  A    between atoms: _122  and  _123
REMARK   54  A    between atoms: _122  and  _125
REMARK   55  A    between atoms: _125  and  _126
REMARK   56  A    between atoms: _128  and  _130
REMARK   57  A    between atoms: _130  and  _131
REMARK   58  A    between atoms: _130  and  _133
REMARK   59  A    between atoms: _133  and  _134
REMARK   60  A    between atoms: _139  and  _141
REMARK   61  A    between atoms: _141  and  _142
REMARK   62  A    between atoms: _141  and  _144
REMARK   63  A    between atoms: _144  and  _145
REMARK   64  A    between atoms: _150  and  _151
REMARK   65  A    between atoms: _153  and  _155
REMARK   66  A    between atoms: _155  and  _156
REMARK   67  A    between atoms: _155  and  _158
REMARK   68  A    between atoms: _162  and  _163
REMARK   69  A    between atoms: _168  and  _170
REMARK   70  A    between atoms: _170  and  _171
REMARK   71  A    between atoms: _170  and  _173
REMARK   72  A    between atoms: _173  and  _174
REMARK   73  A    between atoms: _179  and  _180
REMARK   74  A    between atoms: _182  and  _184
REMARK   75  A    between atoms: _184  and  _185
REMARK   76  A    between atoms: _184  and  _187
REMARK   77  A    between atoms: _187  and  _188
REMARK   78  A    between atoms: _191  and  _193
REMARK   79  A    between atoms: _193  and  _194
REMARK   80  A    between atoms: _193  and  _196
REMARK   81  A    between atoms: _196  and  _197
REMARK   82  A    between atoms: _197  and  _198
REMARK   83  A    between atoms: _203  and  _205
REMARK   84  A    between atoms: _205  and  _206
REMARK   85  A    between atoms: _208  and  _210
REMARK   86  A    between atoms: _210  and  _211
REMARK   87  A    between atoms: _210  and  _213
REMARK   88  A    between atoms: _213  and  _214
REMARK   89  A    between atoms: _214  and  _215
REMARK   90  A    between atoms: _215  and  _216
REMARK   91  A    between atoms: _216  and  _217
REMARK   92  A    between atoms: _221  and  _223
REMARK   93  A    between atoms: _223  and  _224
REMARK   94  A    between atoms: _223  and  _226
REMARK   95  A    between atoms: _226  and  _227
REMARK   96  A    between atoms: _237  and  _239
REMARK   97  A    between atoms: _239  and  _240
REMARK   98  A    between atoms: _239  and  _242
REMARK   99  A    between atoms: _242  and  _243
REMARK  100  A    between atoms: _246  and  _248
REMARK  101  A    between atoms: _248  and  _249
REMARK  102  A    between atoms: _248  and  _251
REMARK  103  A    between atoms: _251  and  _252
REMARK  104  A    between atoms: _252  and  _253
REMARK  105  A    between atoms: _253  and  _254
REMARK  106  A    between atoms: _254  and  _255
REMARK  107  A    between atoms: _259  and  _261
REMARK  108  A    between atoms: _261  and  _262
REMARK  109  A    between atoms: _261  and  _264
REMARK  110  A    between atoms: _264  and  _265
REMARK  111  A    between atoms: _271  and  _273
REMARK  112  A    between atoms: _273  and  _274
REMARK  113  A    between atoms: _273  and  _276
REMARK  114  A    between atoms: _276  and  _277
REMARK  115  A    between atoms: _283  and  _285
REMARK  116  A    between atoms: _285  and  _286
REMARK  117  A    between atoms: _285  and  _288
REMARK  118  A    between atoms: _288  and  _289
REMARK  119  A    between atoms: _292  and  _294
REMARK  120  A    between atoms: _294  and  _295
REMARK  121  A    between atoms: _294  and  _297
REMARK  122  A    between atoms: _297  and  _298
REMARK  123  A    between atoms: _300  and  _302
REMARK  124  A    between atoms: _302  and  _303
REMARK  125  A    between atoms: _302  and  _305
REMARK  126  A    between atoms: _305  and  _306
REMARK  127  A    between atoms: _316  and  _318
REMARK  128  A    between atoms: _318  and  _319
REMARK  129  A    between atoms: _321  and  _323
REMARK  130  A    between atoms: _323  and  _324
REMARK  131  A    between atoms: _323  and  _326
REMARK  132  A    between atoms: _326  and  _327
REMARK  133  A    between atoms: _330  and  _332
REMARK  134  A    between atoms: _332  and  _333
REMARK  135  A    between atoms: _335  and  _337
REMARK  136  A    between atoms: _337  and  _338
REMARK  137  A    between atoms: _337  and  _340
REMARK  138  A    between atoms: _340  and  _341
REMARK  139  A    between atoms: _344  and  _346
REMARK  140  A    between atoms: _346  and  _347
REMARK  141  A    between atoms: _350  and  _352
REMARK  142  A    between atoms: _352  and  _353
REMARK  143  A    between atoms: _352  and  _355
REMARK  144  A    between atoms: _355  and  _356
REMARK  145  A    between atoms: _361  and  _362
REMARK  146  A    between atoms: _364  and  _366
REMARK  147  A    between atoms: _366  and  _367
REMARK  148  A    between atoms: _366  and  _369
REMARK  149  A    between atoms: _369  and  _370
REMARK  150  A    between atoms: _370  and  _371
REMARK  151  A    between atoms: _374  and  _376
REMARK  152  A    between atoms: _376  and  _377
REMARK  153  A    between atoms: _376  and  _379
REMARK  154  A    between atoms: _379  and  _380
REMARK  155  A    between atoms: _383  and  _385
REMARK  156  A    between atoms: _385  and  _386
REMARK  157  A    between atoms: _389  and  _391
REMARK  158  A    between atoms: _391  and  _392
REMARK  159  A    between atoms: _391  and  _394
REMARK  160  A    between atoms: _394  and  _395
REMARK  161  A    between atoms: _395  and  _396
REMARK  162  A    between atoms: _396  and  _397
REMARK  163  A    between atoms: _406  and  _408
REMARK  164  A    between atoms: _408  and  _409
REMARK  165  A    between atoms: _408  and  _411
REMARK  166  A    between atoms: _411  and  _412
REMARK  167  A    between atoms: _415  and  _417
REMARK  168  A    between atoms: _417  and  _418
REMARK  169  A    between atoms: _417  and  _420
REMARK  170  A    between atoms: _420  and  _421
REMARK  171  A    between atoms: _431  and  _433
REMARK  172  A    between atoms: _433  and  _434
REMARK  173  A    between atoms: _433  and  _436
REMARK  174  A    between atoms: _436  and  _437
REMARK  175  A    between atoms: _442  and  _443
REMARK  176  A    between atoms: _445  and  _447
REMARK  177  A    between atoms: _447  and  _448
REMARK  178  A    between atoms: _447  and  _450
REMARK  179  A    between atoms: _450  and  _451
REMARK  180  A    between atoms: _451  and  _452
REMARK  181  A    between atoms: _452  and  _453
REMARK  182  A    between atoms: _453  and  _454
REMARK  183  A    between atoms: _458  and  _460
REMARK  184  A    between atoms: _460  and  _461
REMARK  185  A    between atoms: _460  and  _463
REMARK  186  A    between atoms: _463  and  _464
REMARK  187  A    between atoms: _467  and  _469
REMARK  188  A    between atoms: _469  and  _470
REMARK  189  A    between atoms: _469  and  _472
REMARK  190  A    between atoms: _475  and  _477
REMARK  191  A    between atoms: _477  and  _478
REMARK  192  A    between atoms: _477  and  _480
REMARK  193  A    between atoms: _480  and  _481
REMARK  194  A    between atoms: _484  and  _486
REMARK  195  A    between atoms: _486  and  _487
REMARK  196  A    between atoms: _486  and  _489
REMARK  197  A    between atoms: _489  and  _490
REMARK  198  A    between atoms: _492  and  _494
REMARK  199  A    between atoms: _494  and  _495
REMARK  200  A    between atoms: _497  and  _499
REMARK  201  A    between atoms: _499  and  _500
REMARK  202  A    between atoms: _499  and  _502
REMARK  203  A    between atoms: _502  and  _503
REMARK  204  A    between atoms: _506  and  _508
REMARK  205  A    between atoms: _508  and  _509
REMARK  206  A    between atoms: _508  and  _511
REMARK  207  A    between atoms: _511  and  _512
REMARK  208  A    between atoms: _515  and  _517
REMARK  209  A    between atoms: _517  and  _518
REMARK  210  A    between atoms: _517  and  _520
REMARK  211  A    between atoms: _520  and  _521
REMARK  212  A    between atoms: _526  and  _528
REMARK  213  A    between atoms: _528  and  _529
REMARK  214  A    between atoms: _528  and  _531
REMARK  215  A    between atoms: _531  and  _532
REMARK  216  A    between atoms: _535  and  _537
REMARK  217  A    between atoms: _537  and  _538
REMARK  218  A    between atoms: _537  and  _540
REMARK  219  A    between atoms: _540  and  _541
REMARK  220  A    between atoms: _541  and  _542
REMARK  221  A    between atoms: _542  and  _543
REMARK  222  A    between atoms: _552  and  _554
REMARK  223  A    between atoms: _554  and  _555
REMARK  224  A    between atoms: _554  and  _557
REMARK  225  A    between atoms: _557  and  _558
REMARK  226  A    between atoms: _558  and  _559
REMARK  227  A    between atoms: _559  and  _560
REMARK  228  A    between atoms: _569  and  _571
REMARK  229  A    between atoms: _571  and  _572
REMARK  230  A    between atoms: _571  and  _574
REMARK  231  A    between atoms: _574  and  _575
REMARK  232  A    between atoms: _575  and  _576
REMARK  233  A    between atoms: _576  and  _577
REMARK  234  A    between atoms: _577  and  _578
REMARK  235  A    between atoms: _582  and  _584
REMARK  236  A    between atoms: _584  and  _585
REMARK  237  A    between atoms: _584  and  _587
REMARK  238  A    between atoms: _587  and  _588
REMARK  239  A    between atoms: _590  and  _592
REMARK  240  A    between atoms: _592  and  _593
REMARK  241  A    between atoms: _592  and  _595
REMARK  242  A    between atoms: _595  and  _596
REMARK  243  A    between atoms: _599  and  _601
REMARK  244  A    between atoms: _601  and  _602
REMARK  245  A    between atoms: _601  and  _604
REMARK  246  A    between atoms: _607  and  _609
REMARK  247  A    between atoms: _609  and  _610
REMARK  248  A    between atoms: _612  and  _614
REMARK  249  A    between atoms: _614  and  _615
REMARK                            x       y       z     vdW  Elec       q    Type
REMARK                         _______ _______ _______ _____ _____    ______ ____
ROOT
ATOM      1  O   HOH     1      32.297   8.033   1.439  0.00  0.00    +0.000 OA
ENDROOT
TORSDOF 0
REMARK  Name = ../refined-set-2016/3ckp/3ckp_pocket.pdb
REMARK  249 active torsions:
REMARK  status: ('A' for Active; 'I' for Inactive)
REMARK    1  A    between atoms: _1  and  _3
REMARK    2  A    between atoms: _3  and  _4
REMARK    3  A    between atoms: _3  and  _6
REMARK    4  A    between atoms: _6  and  _7
REMARK    5  A    between atoms: _7  and  _8
REMARK    6  A    between atoms: _8  and  _9
REMARK    7  A    between atoms: _9  and  _10
REMARK    8  A    between atoms: _14  and  _16
REMARK    9  A    between atoms: _16  and  _17
REMARK   10  A    between atoms: _16  and  _19
REMARK   11  A    between atoms: _19  and  _20
REMARK   12  A    between atoms: _22  and  _24
REMARK   13  A    between atoms: _24  and  _25
REMARK   14  A    between atoms: _27  and  _29
REMARK   15  A    between atoms: _29  and  _30
REMARK   16  A    between atoms: _29  and  _32
REMARK   17  A    between atoms: _32  and  _33
REMARK   18  A    between atoms: _33  and  _34
REMARK   19  A    between atoms: _39  and  _41
REMARK   20  A    between atoms: _41  and  _42
REMARK   21  A    between atoms: _44  and  _46
REMARK   22  A    between atoms: _46  and  _47
REMARK   23  A    between atoms: _46  and  _49
REMARK   24  A    between atoms: _49  and  _50
REMARK   25  A    between atoms: _55  and  _56
REMARK   26  A    between atoms: _58  and  _60
REMARK   27  A    between atoms: _60  and  _61
REMARK   28  A    between atoms: _60  and  _63
REMARK   29  A    between atoms: _63  and  _64
REMARK   30  A    between atoms: _69  and  _70
REMARK   31  A    between atoms: _72  and  _74
REMARK   32  A    between atoms: _74  and  _75
REMARK   33  A    between atoms: _74  and  _77
REMARK   34  A    between atoms: _77  and  _78
REMARK   35  A    between atoms: _81  and  _83
REMARK   36  A    between atoms: _83  and  _84
REMARK   37  A    between atoms: _83  and  _86
REMARK   38  A    between atoms: _89  and  _91
REMARK   39  A    between atoms: _91  and  _92
REMARK   40  A    between atoms: _91  and  _94
REMARK   41  A    between atoms: _94  and  _95
REMARK   42  A    between atoms: _98  and  _100
REMARK   43  A    between atoms: _100  and  _101
REMARK   44  A    between atoms: _100  and  _103
REMARK   45  A    between atoms: _103  and  _104
REMARK   46  A    between atoms: _107  and  _109
REMARK   47  A    between atoms: _109  and  _110
REMARK   48  A    between atoms: _112  and  _114
REMARK   49  A    between atoms: _114  and  _115
REMARK   50  A    between atoms: _114  and  _117
REMARK   51  A    between atoms: _117  and  _118
REMARK   52  A    between atoms: _120  and  _122
REMARK   53  A    between atoms: _122  and  _123
REMARK   54  A    between atoms: _122  and  _125
REMARK   55  A    between atoms: _125  and  _126
REMARK   56  A    between atoms: _128  and  _130
REMARK   57  A    between atoms: _130  and  _131
REMARK   58  A    between atoms: _130  and  _133
REMARK   59  A    between atoms: _133  and  _134
REMARK   60  A    between atoms: _139  and  _141
REMARK   61  A    between atoms: _141  and  _142
REMARK   62  A    between atoms: _141  and  _144
REMARK   63  A    between atoms: _144  and  _145
REMARK   64  A    between atoms: _150  and  _151
REMARK   65  A    between atoms: _153  and  _155
REMARK   66  A    between atoms: _155  and  _156
REMARK   67  A    between atoms: _155  and  _158
REMARK   68  A    between atoms: _162  and  _163
REMARK   69  A    between atoms: _168  and  _170
REMARK   70  A    between atoms: _170  and  _171
REMARK   71  A    between atoms: _170  and  _173
REMARK   72  A    between atoms: _173  and  _174
REMARK   73  A    between atoms: _179  and  _180
REMARK   74  A    between atoms: _182  and  _184
REMARK   75  A    between atoms: _184  and  _185
REMARK   76  A    between atoms: _184  and  _187
REMARK   77  A    between atoms: _187  and  _188
REMARK   78  A    between atoms: _191  and  _193
REMARK   79  A    between atoms: _193  and  _194
REMARK   80  A    between atoms: _193  and  _196
REMARK   81  A    between atoms: _196  and  _197
REMARK   82  A    between atoms: _197  and  _198
REMARK   83  A    between atoms: _203  and  _205
REMARK   84  A    between atoms: _205  and  _206
REMARK   85  A    between atoms: _208  and  _210
REMARK   86  A    between atoms: _210  and  _211
REMARK   87  A    between atoms: _210  and  _213
REMARK   88  A    between atoms: _213  and  _214
REMARK   89  A    between atoms: _214  and  _215
REMARK   90  A    between atoms: _215  and  _216
REMARK   91  A    between atoms: _216  and  _217
REMARK   92  A    between atoms: _221  and  _223
REMARK   93  A    between atoms: _223  and  _224
REMARK   94  A    between atoms: _223  and  _226
REMARK   95  A    between atoms: _226  and  _227
REMARK   96  A    between atoms: _237  and  _239
REMARK   97  A    between atoms: _239  and  _240
REMARK   98  A    between atoms: _239  and  _242
REMARK   99  A    between atoms: _242  and  _243
REMARK  100  A    between atoms: _246  and  _248
REMARK  101  A    between atoms: _248  and  _249
REMARK  102  A    between atoms: _248  and  _251
REMARK  103  A    between atoms: _251  and  _252
REMARK  104  A    between atoms: _252  and  _253
REMARK  105  A    between atoms: _253  and  _254
REMARK  106  A    between atoms: _254  and  _255
REMARK  107  A    between atoms: _259  and  _261
REMARK  108  A    between atoms: _261  and  _262
REMARK  109  A    between atoms: _261  and  _264
REMARK  110  A    between atoms: _264  and  _265
REMARK  111  A    between atoms: _271  and  _273
REMARK  112  A    between atoms: _273  and  _274
REMARK  113  A    between atoms: _273  and  _276
REMARK  114  A    between atoms: _276  and  _277
REMARK  115  A    between atoms: _283  and  _285
REMARK  116  A    between atoms: _285  and  _286
REMARK  117  A    between atoms: _285  and  _288
REMARK  118  A    between atoms: _288  and  _289
REMARK  119  A    between atoms: _292  and  _294
REMARK  120  A    between atoms: _294  and  _295
REMARK  121  A    between atoms: _294  and  _297
REMARK  122  A    between atoms: _297  and  _298
REMARK  123  A    between atoms: _300  and  _302
REMARK  124  A    between atoms: _302  and  _303
REMARK  125  A    between atoms: _302  and  _305
REMARK  126  A    between atoms: _305  and  _306
REMARK  127  A    between atoms: _316  and  _318
REMARK  128  A    between atoms: _318  and  _319
REMARK  129  A    between atoms: _321  and  _323
REMARK  130  A    between atoms: _323  and  _324
REMARK  131  A    between atoms: _323  and  _326
REMARK  132  A    between atoms: _326  and  _327
REMARK  133  A    between atoms: _330  and  _332
REMARK  134  A    between atoms: _332  and  _333
REMARK  135  A    between atoms: _335  and  _337
REMARK  136  A    between atoms: _337  and  _338
REMARK  137  A    between atoms: _337  and  _340
REMARK  138  A    between atoms: _340  and  _341
REMARK  139  A    between atoms: _344  and  _346
REMARK  140  A    between atoms: _346  and  _347
REMARK  141  A    between atoms: _350  and  _352
REMARK  142  A    between atoms: _352  and  _353
REMARK  143  A    between atoms: _352  and  _355
REMARK  144  A    between atoms: _355  and  _356
REMARK  145  A    between atoms: _361  and  _362
REMARK  146  A    between atoms: _364  and  _366
REMARK  147  A    between atoms: _366  and  _367
REMARK  148  A    between atoms: _366  and  _369
REMARK  149  A    between atoms: _369  and  _370
REMARK  150  A    between atoms: _370  and  _371
REMARK  151  A    between atoms: _374  and  _376
REMARK  152  A    between atoms: _376  and  _377
REMARK  153  A    between atoms: _376  and  _379
REMARK  154  A    between atoms: _379  and  _380
REMARK  155  A    between atoms: _383  and  _385
REMARK  156  A    between atoms: _385  and  _386
REMARK  157  A    between atoms: _389  and  _391
REMARK  158  A    between atoms: _391  and  _392
REMARK  159  A    between atoms: _391  and  _394
REMARK  160  A    between atoms: _394  and  _395
REMARK  161  A    between atoms: _395  and  _396
REMARK  162  A    between atoms: _396  and  _397
REMARK  163  A    between atoms: _406  and  _408
REMARK  164  A    between atoms: _408  and  _409
REMARK  165  A    between atoms: _408  and  _411
REMARK  166  A    between atoms: _411  and  _412
REMARK  167  A    between atoms: _415  and  _417
REMARK  168  A    between atoms: _417  and  _418
REMARK  169  A    between atoms: _417  and  _420
REMARK  170  A    between atoms: _420  and  _421
REMARK  171  A    between atoms: _431  and  _433
REMARK  172  A    between atoms: _433  and  _434
REMARK  173  A    between atoms: _433  and  _436
REMARK  174  A    between atoms: _436  and  _437
REMARK  175  A    between atoms: _442  and  _443
REMARK  176  A    between atoms: _445  and  _447
REMARK  177  A    between atoms: _447  and  _448
REMARK  178  A    between atoms: _447  and  _450
REMARK  179  A    between atoms: _450  and  _451
REMARK  180  A    between atoms: _451  and  _452
REMARK  181  A    between atoms: _452  and  _453
REMARK  182  A    between atoms: _453  and  _454
REMARK  183  A    between atoms: _458  and  _460
REMARK  184  A    between atoms: _460  and  _461
REMARK  185  A    between atoms: _460  and  _463
REMARK  186  A    between atoms: _463  and  _464
REMARK  187  A    between atoms: _467  and  _469
REMARK  188  A    between atoms: _469  and  _470
REMARK  189  A    between atoms: _469  and  _472
REMARK  190  A    between atoms: _475  and  _477
REMARK  191  A    between atoms: _477  and  _478
REMARK  192  A    between atoms: _477  and  _480
REMARK  193  A    between atoms: _480  and  _481
REMARK  194  A    between atoms: _484  and  _486
REMARK  195  A    between atoms: _486  and  _487
REMARK  196  A    between atoms: _486  and  _489
REMARK  197  A    between atoms: _489  and  _490
REMARK  198  A    between atoms: _492  and  _494
REMARK  199  A    between atoms: _494  and  _495
REMARK  200  A    between atoms: _497  and  _499
REMARK  201  A    between atoms: _499  and  _500
REMARK  202  A    between atoms: _499  and  _502
REMARK  203  A    between atoms: _502  and  _503
REMARK  204  A    between atoms: _506  and  _508
REMARK  205  A    between atoms: _508  and  _509
REMARK  206  A    between atoms: _508  and  _511
REMARK  207  A    between atoms: _511  and  _512
REMARK  208  A    between atoms: _515  and  _517
REMARK  209  A    between atoms: _517  and  _518
REMARK  210  A    between atoms: _517  and  _520
REMARK  211  A    between atoms: _520  and  _521
REMARK  212  A    between atoms: _526  and  _528
REMARK  213  A    between atoms: _528  and  _529
REMARK  214  A    between atoms: _528  and  _531
REMARK  215  A    between atoms: _531  and  _532
REMARK  216  A    between atoms: _535  and  _537
REMARK  217  A    between atoms: _537  and  _538
REMARK  218  A    between atoms: _537  and  _540
REMARK  219  A    between atoms: _540  and  _541
REMARK  220  A    between atoms: _541  and  _542
REMARK  221  A    between atoms: _542  and  _543
REMARK  222  A    between atoms: _552  and  _554
REMARK  223  A    between atoms: _554  and  _555
REMARK  224  A    between atoms: _554  and  _557
REMARK  225  A    between atoms: _557  and  _558
REMARK  226  A    between atoms: _558  and  _559
REMARK  227  A    between atoms: _559  and  _560
REMARK  228  A    between atoms: _569  and  _571
REMARK  229  A    between atoms: _571  and  _572
REMARK  230  A    between atoms: _571  and  _574
REMARK  231  A    between atoms: _574  and  _575
REMARK  232  A    between atoms: _575  and  _576
REMARK  233  A    between atoms: _576  and  _577
REMARK  234  A    between atoms: _577  and  _578
REMARK  235  A    between atoms: _582  and  _584
REMARK  236  A    between atoms: _584  and  _585
REMARK  237  A    between atoms: _584  and  _587
REMARK  238  A    between atoms: _587  and  _588
REMARK  239  A    between atoms: _590  and  _592
REMARK  240  A    between atoms: _592  and  _593
REMARK  241  A    between atoms: _592  and  _595
REMARK  242  A    between atoms: _595  and  _596
REMARK  243  A    between atoms: _599  and  _601
REMARK  244  A    between atoms: _601  and  _602
REMARK  245  A    between atoms: _601  and  _604
REMARK  246  A    between atoms: _607  and  _609
REMARK  247  A    between atoms: _609  and  _610
REMARK  248  A    between atoms: _612  and  _614
REMARK  249  A    between atoms: _614  and  _615
REMARK                            x       y       z     vdW  Elec       q    Type
REMARK                         _______ _______ _______ _____ _____    ______ ____
ROOT
ATOM      1  O   HOH     1      24.000  11.528   8.085  0.00  0.00    +0.000 OA
ENDROOT
TORSDOF 0
REMARK  Name = ../refined-set-2016/3ckp/3ckp_pocket.pdb
REMARK  249 active torsions:
REMARK  status: ('A' for Active; 'I' for Inactive)
REMARK    1  A    between atoms: _1  and  _3
REMARK    2  A    between atoms: _3  and  _4
REMARK    3  A    between atoms: _3  and  _6
REMARK    4  A    between atoms: _6  and  _7
REMARK    5  A    between atoms: _7  and  _8
REMARK    6  A    between atoms: _8  and  _9
REMARK    7  A    between atoms: _9  and  _10
REMARK    8  A    between atoms: _14  and  _16
REMARK    9  A    between atoms: _16  and  _17
REMARK   10  A    between atoms: _16  and  _19
REMARK   11  A    between atoms: _19  and  _20
REMARK   12  A    between atoms: _22  and  _24
REMARK   13  A    between atoms: _24  and  _25
REMARK   14  A    between atoms: _27  and  _29
REMARK   15  A    between atoms: _29  and  _30
REMARK   16  A    between atoms: _29  and  _32
REMARK   17  A    between atoms: _32  and  _33
REMARK   18  A    between atoms: _33  and  _34
REMARK   19  A    between atoms: _39  and  _41
REMARK   20  A    between atoms: _41  and  _42
REMARK   21  A    between atoms: _44  and  _46
REMARK   22  A    between atoms: _46  and  _47
REMARK   23  A    between atoms: _46  and  _49
REMARK   24  A    between atoms: _49  and  _50
REMARK   25  A    between atoms: _55  and  _56
REMARK   26  A    between atoms: _58  and  _60
REMARK   27  A    between atoms: _60  and  _61
REMARK   28  A    between atoms: _60  and  _63
REMARK   29  A    between atoms: _63  and  _64
REMARK   30  A    between atoms: _69  and  _70
REMARK   31  A    between atoms: _72  and  _74
REMARK   32  A    between atoms: _74  and  _75
REMARK   33  A    between atoms: _74  and  _77
REMARK   34  A    between atoms: _77  and  _78
REMARK   35  A    between atoms: _81  and  _83
REMARK   36  A    between atoms: _83  and  _84
REMARK   37  A    between atoms: _83  and  _86
REMARK   38  A    between atoms: _89  and  _91
REMARK   39  A    between atoms: _91  and  _92
REMARK   40  A    between atoms: _91  and  _94
REMARK   41  A    between atoms: _94  and  _95
REMARK   42  A    between atoms: _98  and  _100
REMARK   43  A    between atoms: _100  and  _101
REMARK   44  A    between atoms: _100  and  _103
REMARK   45  A    between atoms: _103  and  _104
REMARK   46  A    between atoms: _107  and  _109
REMARK   47  A    between atoms: _109  and  _110
REMARK   48  A    between atoms: _112  and  _114
REMARK   49  A    between atoms: _114  and  _115
REMARK   50  A    between atoms: _114  and  _117
REMARK   51  A    between atoms: _117  and  _118
REMARK   52  A    between atoms: _120  and  _122
REMARK   53  A    between atoms: _122  and  _123
REMARK   54  A    between atoms: _122  and  _125
REMARK   55  A    between atoms: _125  and  _126
REMARK   56  A    between atoms: _128  and  _130
REMARK   57  A    between atoms: _130  and  _131
REMARK   58  A    between atoms: _130  and  _133
REMARK   59  A    between atoms: _133  and  _134
REMARK   60  A    between atoms: _139  and  _141
REMARK   61  A    between atoms: _141  and  _142
REMARK   62  A    between atoms: _141  and  _144
REMARK   63  A    between atoms: _144  and  _145
REMARK   64  A    between atoms: _150  and  _151
REMARK   65  A    between atoms: _153  and  _155
REMARK   66  A    between atoms: _155  and  _156
REMARK   67  A    between atoms: _155  and  _158
REMARK   68  A    between atoms: _162  and  _163
REMARK   69  A    between atoms: _168  and  _170
REMARK   70  A    between atoms: _170  and  _171
REMARK   71  A    between atoms: _170  and  _173
REMARK   72  A    between atoms: _173  and  _174
REMARK   73  A    between atoms: _179  and  _180
REMARK   74  A    between atoms: _182  and  _184
REMARK   75  A    between atoms: _184  and  _185
REMARK   76  A    between atoms: _184  and  _187
REMARK   77  A    between atoms: _187  and  _188
REMARK   78  A    between atoms: _191  and  _193
REMARK   79  A    between atoms: _193  and  _194
REMARK   80  A    between atoms: _193  and  _196
REMARK   81  A    between atoms: _196  and  _197
REMARK   82  A    between atoms: _197  and  _198
REMARK   83  A    between atoms: _203  and  _205
REMARK   84  A    between atoms: _205  and  _206
REMARK   85  A    between atoms: _208  and  _210
REMARK   86  A    between atoms: _210  and  _211
REMARK   87  A    between atoms: _210  and  _213
REMARK   88  A    between atoms: _213  and  _214
REMARK   89  A    between atoms: _214  and  _215
REMARK   90  A    between atoms: _215  and  _216
REMARK   91  A    between atoms: _216  and  _217
REMARK   92  A    between atoms: _221  and  _223
REMARK   93  A    between atoms: _223  and  _224
REMARK   94  A    between atoms: _223  and  _226
REMARK   95  A    between atoms: _226  and  _227
REMARK   96  A    between atoms: _237  and  _239
REMARK   97  A    between atoms: _239  and  _240
REMARK   98  A    between atoms: _239  and  _242
REMARK   99  A    between atoms: _242  and  _243
REMARK  100  A    between atoms: _246  and  _248
REMARK  101  A    between atoms: _248  and  _249
REMARK  102  A    between atoms: _248  and  _251
REMARK  103  A    between atoms: _251  and  _252
REMARK  104  A    between atoms: _252  and  _253
REMARK  105  A    between atoms: _253  and  _254
REMARK  106  A    between atoms: _254  and  _255
REMARK  107  A    between atoms: _259  and  _261
REMARK  108  A    between atoms: _261  and  _262
REMARK  109  A    between atoms: _261  and  _264
REMARK  110  A    between atoms: _264  and  _265
REMARK  111  A    between atoms: _271  and  _273
REMARK  112  A    between atoms: _273  and  _274
REMARK  113  A    between atoms: _273  and  _276
REMARK  114  A    between atoms: _276  and  _277
REMARK  115  A    between atoms: _283  and  _285
REMARK  116  A    between atoms: _285  and  _286
REMARK  117  A    between atoms: _285  and  _288
REMARK  118  A    between atoms: _288  and  _289
REMARK  119  A    between atoms: _292  and  _294
REMARK  120  A    between atoms: _294  and  _295
REMARK  121  A    between atoms: _294  and  _297
REMARK  122  A    between atoms: _297  and  _298
REMARK  123  A    between atoms: _300  and  _302
REMARK  124  A    between atoms: _302  and  _303
REMARK  125  A    between atoms: _302  and  _305
REMARK  126  A    between atoms: _305  and  _306
REMARK  127  A    between atoms: _316  and  _318
REMARK  128  A    between atoms: _318  and  _319
REMARK  129  A    between atoms: _321  and  _323
REMARK  130  A    between atoms: _323  and  _324
REMARK  131  A    between atoms: _323  and  _326
REMARK  132  A    between atoms: _326  and  _327
REMARK  133  A    between atoms: _330  and  _332
REMARK  134  A    between atoms: _332  and  _333
REMARK  135  A    between atoms: _335  and  _337
REMARK  136  A    between atoms: _337  and  _338
REMARK  137  A    between atoms: _337  and  _340
REMARK  138  A    between atoms: _340  and  _341
REMARK  139  A    between atoms: _344  and  _346
REMARK  140  A    between atoms: _346  and  _347
REMARK  141  A    between atoms: _350  and  _352
REMARK  142  A    between atoms: _352  and  _353
REMARK  143  A    between atoms: _352  and  _355
REMARK  144  A    between atoms: _355  and  _356
REMARK  145  A    between atoms: _361  and  _362
REMARK  146  A    between atoms: _364  and  _366
REMARK  147  A    between atoms: _366  and  _367
REMARK  148  A    between atoms: _366  and  _369
REMARK  149  A    between atoms: _369  and  _370
REMARK  150  A    between atoms: _370  and  _371
REMARK  151  A    between atoms: _374  and  _376
REMARK  152  A    between atoms: _376  and  _377
REMARK  153  A    between atoms: _376  and  _379
REMARK  154  A    between atoms: _379  and  _380
REMARK  155  A    between atoms: _383  and  _385
REMARK  156  A    between atoms: _385  and  _386
REMARK  157  A    between atoms: _389  and  _391
REMARK  158  A    between atoms: _391  and  _392
REMARK  159  A    between atoms: _391  and  _394
REMARK  160  A    between atoms: _394  and  _395
REMARK  161  A    between atoms: _395  and  _396
REMARK  162  A    between atoms: _396  and  _397
REMARK  163  A    between atoms: _406  and  _408
REMARK  164  A    between atoms: _408  and  _409
REMARK  165  A    between atoms: _408  and  _411
REMARK  166  A    between atoms: _411  and  _412
REMARK  167  A    between atoms: _415  and  _417
REMARK  168  A    between atoms: _417  and  _418
REMARK  169  A    between atoms: _417  and  _420
REMARK  170  A    between atoms: _420  and  _421
REMARK  171  A    between atoms: _431  and  _433
REMARK  172  A    between atoms: _433  and  _434
REMARK  173  A    between atoms: _433  and  _436
REMARK  174  A    between atoms: _436  and  _437
REMARK  175  A    between atoms: _442  and  _443
REMARK  176  A    between atoms: _445  and  _447
REMARK  177  A    between atoms: _447  and  _448
REMARK  178  A    between atoms: _447  and  _450
REMARK  179  A    between atoms: _450  and  _451
REMARK  180  A    between atoms: _451  and  _452
REMARK  181  A    between atoms: _452  and  _453
REMARK  182  A    between atoms: _453  and  _454
REMARK  183  A    between atoms: _458  and  _460
REMARK  184  A    between atoms: _460  and  _461
REMARK  185  A    between atoms: _460  and  _463
REMARK  186  A    between atoms: _463  and  _464
REMARK  187  A    between atoms: _467  and  _469
REMARK  188  A    between atoms: _469  and  _470
REMARK  189  A    between atoms: _469  and  _472
REMARK  190  A    between atoms: _475  and  _477
REMARK  191  A    between atoms: _477  and  _478
REMARK  192  A    between atoms: _477  and  _480
REMARK  193  A    between atoms: _480  and  _481
REMARK  194  A    between atoms: _484  and  _486
REMARK  195  A    between atoms: _486  and  _487
REMARK  196  A    between atoms: _486  and  _489
REMARK  197  A    between atoms: _489  and  _490
REMARK  198  A    between atoms: _492  and  _494
REMARK  199  A    between atoms: _494  and  _495
REMARK  200  A    between atoms: _497  and  _499
REMARK  201  A    between atoms: _499  and  _500
REMARK  202  A    between atoms: _499  and  _502
REMARK  203  A    between atoms: _502  and  _503
REMARK  204  A    between atoms: _506  and  _508
REMARK  205  A    between atoms: _508  and  _509
REMARK  206  A    between atoms: _508  and  _511
REMARK  207  A    between atoms: _511  and  _512
REMARK  208  A    between atoms: _515  and  _517
REMARK  209  A    between atoms: _517  and  _518
REMARK  210  A    between atoms: _517  and  _520
REMARK  211  A    between atoms: _520  and  _521
REMARK  212  A    between atoms: _526  and  _528
REMARK  213  A    between atoms: _528  and  _529
REMARK  214  A    between atoms: _528  and  _531
REMARK  215  A    between atoms: _531  and  _532
REMARK  216  A    between atoms: _535  and  _537
REMARK  217  A    between atoms: _537  and  _538
REMARK  218  A    between atoms: _537  and  _540
REMARK  219  A    between atoms: _540  and  _541
REMARK  220  A    between atoms: _541  and  _542
REMARK  221  A    between atoms: _542  and  _543
REMARK  222  A    between atoms: _552  and  _554
REMARK  223  A    between atoms: _554  and  _555
REMARK  224  A    between atoms: _554  and  _557
REMARK  225  A    between atoms: _557  and  _558
REMARK  226  A    between atoms: _558  and  _559
REMARK  227  A    between atoms: _559  and  _560
REMARK  228  A    between atoms: _569  and  _571
REMARK  229  A    between atoms: _571  and  _572
REMARK  230  A    between atoms: _571  and  _574
REMARK  231  A    between atoms: _574  and  _575
REMARK  232  A    between atoms: _575  and  _576
REMARK  233  A    between atoms: _576  and  _577
REMARK  234  A    between atoms: _577  and  _578
REMARK  235  A    between atoms: _582  and  _584
REMARK  236  A    between atoms: _584  and  _585
REMARK  237  A    between atoms: _584  and  _587
REMARK  238  A    between atoms: _587  and  _588
REMARK  239  A    between atoms: _590  and  _592
REMARK  240  A    between atoms: _592  and  _593
REMARK  241  A    between atoms: _592  and  _595
REMARK  242  A    between atoms: _595  and  _596
REMARK  243  A    between atoms: _599  and  _601
REMARK  244  A    between atoms: _601  and  _602
REMARK  245  A    between atoms: _601  and  _604
REMARK  246  A    between atoms: _607  and  _609
REMARK  247  A    between atoms: _609  and  _610
REMARK  248  A    between atoms: _612  and  _614
REMARK  249  A    between atoms: _614  and  _615
REMARK                            x       y       z     vdW  Elec       q    Type
REMARK                         _______ _______ _______ _____ _____    ______ ____
ROOT
ATOM      1  O   HOH     1      24.641   1.404  20.532  0.00  0.00    +0.000 OA
ENDROOT
TORSDOF 0
REMARK  Name = ../refined-set-2016/3ckp/3ckp_pocket.pdb
REMARK  249 active torsions:
REMARK  status: ('A' for Active; 'I' for Inactive)
REMARK    1  A    between atoms: _1  and  _3
REMARK    2  A    between atoms: _3  and  _4
REMARK    3  A    between atoms: _3  and  _6
REMARK    4  A    between atoms: _6  and  _7
REMARK    5  A    between atoms: _7  and  _8
REMARK    6  A    between atoms: _8  and  _9
REMARK    7  A    between atoms: _9  and  _10
REMARK    8  A    between atoms: _14  and  _16
REMARK    9  A    between atoms: _16  and  _17
REMARK   10  A    between atoms: _16  and  _19
REMARK   11  A    between atoms: _19  and  _20
REMARK   12  A    between atoms: _22  and  _24
REMARK   13  A    between atoms: _24  and  _25
REMARK   14  A    between atoms: _27  and  _29
REMARK   15  A    between atoms: _29  and  _30
REMARK   16  A    between atoms: _29  and  _32
REMARK   17  A    between atoms: _32  and  _33
REMARK   18  A    between atoms: _33  and  _34
REMARK   19  A    between atoms: _39  and  _41
REMARK   20  A    between atoms: _41  and  _42
REMARK   21  A    between atoms: _44  and  _46
REMARK   22  A    between atoms: _46  and  _47
REMARK   23  A    between atoms: _46  and  _49
REMARK   24  A    between atoms: _49  and  _50
REMARK   25  A    between atoms: _55  and  _56
REMARK   26  A    between atoms: _58  and  _60
REMARK   27  A    between atoms: _60  and  _61
REMARK   28  A    between atoms: _60  and  _63
REMARK   29  A    between atoms: _63  and  _64
REMARK   30  A    between atoms: _69  and  _70
REMARK   31  A    between atoms: _72  and  _74
REMARK   32  A    between atoms: _74  and  _75
REMARK   33  A    between atoms: _74  and  _77
REMARK   34  A    between atoms: _77  and  _78
REMARK   35  A    between atoms: _81  and  _83
REMARK   36  A    between atoms: _83  and  _84
REMARK   37  A    between atoms: _83  and  _86
REMARK   38  A    between atoms: _89  and  _91
REMARK   39  A    between atoms: _91  and  _92
REMARK   40  A    between atoms: _91  and  _94
REMARK   41  A    between atoms: _94  and  _95
REMARK   42  A    between atoms: _98  and  _100
REMARK   43  A    between atoms: _100  and  _101
REMARK   44  A    between atoms: _100  and  _103
REMARK   45  A    between atoms: _103  and  _104
REMARK   46  A    between atoms: _107  and  _109
REMARK   47  A    between atoms: _109  and  _110
REMARK   48  A    between atoms: _112  and  _114
REMARK   49  A    between atoms: _114  and  _115
REMARK   50  A    between atoms: _114  and  _117
REMARK   51  A    between atoms: _117  and  _118
REMARK   52  A    between atoms: _120  and  _122
REMARK   53  A    between atoms: _122  and  _123
REMARK   54  A    between atoms: _122  and  _125
REMARK   55  A    between atoms: _125  and  _126
REMARK   56  A    between atoms: _128  and  _130
REMARK   57  A    between atoms: _130  and  _131
REMARK   58  A    between atoms: _130  and  _133
REMARK   59  A    between atoms: _133  and  _134
REMARK   60  A    between atoms: _139  and  _141
REMARK   61  A    between atoms: _141  and  _142
REMARK   62  A    between atoms: _141  and  _144
REMARK   63  A    between atoms: _144  and  _145
REMARK   64  A    between atoms: _150  and  _151
REMARK   65  A    between atoms: _153  and  _155
REMARK   66  A    between atoms: _155  and  _156
REMARK   67  A    between atoms: _155  and  _158
REMARK   68  A    between atoms: _162  and  _163
REMARK   69  A    between atoms: _168  and  _170
REMARK   70  A    between atoms: _170  and  _171
REMARK   71  A    between atoms: _170  and  _173
REMARK   72  A    between atoms: _173  and  _174
REMARK   73  A    between atoms: _179  and  _180
REMARK   74  A    between atoms: _182  and  _184
REMARK   75  A    between atoms: _184  and  _185
REMARK   76  A    between atoms: _184  and  _187
REMARK   77  A    between atoms: _187  and  _188
REMARK   78  A    between atoms: _191  and  _193
REMARK   79  A    between atoms: _193  and  _194
REMARK   80  A    between atoms: _193  and  _196
REMARK   81  A    between atoms: _196  and  _197
REMARK   82  A    between atoms: _197  and  _198
REMARK   83  A    between atoms: _203  and  _205
REMARK   84  A    between atoms: _205  and  _206
REMARK   85  A    between atoms: _208  and  _210
REMARK   86  A    between atoms: _210  and  _211
REMARK   87  A    between atoms: _210  and  _213
REMARK   88  A    between atoms: _213  and  _214
REMARK   89  A    between atoms: _214  and  _215
REMARK   90  A    between atoms: _215  and  _216
REMARK   91  A    between atoms: _216  and  _217
REMARK   92  A    between atoms: _221  and  _223
REMARK   93  A    between atoms: _223  and  _224
REMARK   94  A    between atoms: _223  and  _226
REMARK   95  A    between atoms: _226  and  _227
REMARK   96  A    between atoms: _237  and  _239
REMARK   97  A    between atoms: _239  and  _240
REMARK   98  A    between atoms: _239  and  _242
REMARK   99  A    between atoms: _242  and  _243
REMARK  100  A    between atoms: _246  and  _248
REMARK  101  A    between atoms: _248  and  _249
REMARK  102  A    between atoms: _248  and  _251
REMARK  103  A    between atoms: _251  and  _252
REMARK  104  A    between atoms: _252  and  _253
REMARK  105  A    between atoms: _253  and  _254
REMARK  106  A    between atoms: _254  and  _255
REMARK  107  A    between atoms: _259  and  _261
REMARK  108  A    between atoms: _261  and  _262
REMARK  109  A    between atoms: _261  and  _264
REMARK  110  A    between atoms: _264  and  _265
REMARK  111  A    between atoms: _271  and  _273
REMARK  112  A    between atoms: _273  and  _274
REMARK  113  A    between atoms: _273  and  _276
REMARK  114  A    between atoms: _276  and  _277
REMARK  115  A    between atoms: _283  and  _285
REMARK  116  A    between atoms: _285  and  _286
REMARK  117  A    between atoms: _285  and  _288
REMARK  118  A    between atoms: _288  and  _289
REMARK  119  A    between atoms: _292  and  _294
REMARK  120  A    between atoms: _294  and  _295
REMARK  121  A    between atoms: _294  and  _297
REMARK  122  A    between atoms: _297  and  _298
REMARK  123  A    between atoms: _300  and  _302
REMARK  124  A    between atoms: _302  and  _303
REMARK  125  A    between atoms: _302  and  _305
REMARK  126  A    between atoms: _305  and  _306
REMARK  127  A    between atoms: _316  and  _318
REMARK  128  A    between atoms: _318  and  _319
REMARK  129  A    between atoms: _321  and  _323
REMARK  130  A    between atoms: _323  and  _324
REMARK  131  A    between atoms: _323  and  _326
REMARK  132  A    between atoms: _326  and  _327
REMARK  133  A    between atoms: _330  and  _332
REMARK  134  A    between atoms: _332  and  _333
REMARK  135  A    between atoms: _335  and  _337
REMARK  136  A    between atoms: _337  and  _338
REMARK  137  A    between atoms: _337  and  _340
REMARK  138  A    between atoms: _340  and  _341
REMARK  139  A    between atoms: _344  and  _346
REMARK  140  A    between atoms: _346  and  _347
REMARK  141  A    between atoms: _350  and  _352
REMARK  142  A    between atoms: _352  and  _353
REMARK  143  A    between atoms: _352  and  _355
REMARK  144  A    between atoms: _355  and  _356
REMARK  145  A    between atoms: _361  and  _362
REMARK  146  A    between atoms: _364  and  _366
REMARK  147  A    between atoms: _366  and  _367
REMARK  148  A    between atoms: _366  and  _369
REMARK  149  A    between atoms: _369  and  _370
REMARK  150  A    between atoms: _370  and  _371
REMARK  151  A    between atoms: _374  and  _376
REMARK  152  A    between atoms: _376  and  _377
REMARK  153  A    between atoms: _376  and  _379
REMARK  154  A    between atoms: _379  and  _380
REMARK  155  A    between atoms: _383  and  _385
REMARK  156  A    between atoms: _385  and  _386
REMARK  157  A    between atoms: _389  and  _391
REMARK  158  A    between atoms: _391  and  _392
REMARK  159  A    between atoms: _391  and  _394
REMARK  160  A    between atoms: _394  and  _395
REMARK  161  A    between atoms: _395  and  _396
REMARK  162  A    between atoms: _396  and  _397
REMARK  163  A    between atoms: _406  and  _408
REMARK  164  A    between atoms: _408  and  _409
REMARK  165  A    between atoms: _408  and  _411
REMARK  166  A    between atoms: _411  and  _412
REMARK  167  A    between atoms: _415  and  _417
REMARK  168  A    between atoms: _417  and  _418
REMARK  169  A    between atoms: _417  and  _420
REMARK  170  A    between atoms: _420  and  _421
REMARK  171  A    between atoms: _431  and  _433
REMARK  172  A    between atoms: _433  and  _434
REMARK  173  A    between atoms: _433  and  _436
REMARK  174  A    between atoms: _436  and  _437
REMARK  175  A    between atoms: _442  and  _443
REMARK  176  A    between atoms: _445  and  _447
REMARK  177  A    between atoms: _447  and  _448
REMARK  178  A    between atoms: _447  and  _450
REMARK  179  A    between atoms: _450  and  _451
REMARK  180  A    between atoms: _451  and  _452
REMARK  181  A    between atoms: _452  and  _453
REMARK  182  A    between atoms: _453  and  _454
REMARK  183  A    between atoms: _458  and  _460
REMARK  184  A    between atoms: _460  and  _461
REMARK  185  A    between atoms: _460  and  _463
REMARK  186  A    between atoms: _463  and  _464
REMARK  187  A    between atoms: _467  and  _469
REMARK  188  A    between atoms: _469  and  _470
REMARK  189  A    between atoms: _469  and  _472
REMARK  190  A    between atoms: _475  and  _477
REMARK  191  A    between atoms: _477  and  _478
REMARK  192  A    between atoms: _477  and  _480
REMARK  193  A    between atoms: _480  and  _481
REMARK  194  A    between atoms: _484  and  _486
REMARK  195  A    between atoms: _486  and  _487
REMARK  196  A    between atoms: _486  and  _489
REMARK  197  A    between atoms: _489  and  _490
REMARK  198  A    between atoms: _492  and  _494
REMARK  199  A    between atoms: _494  and  _495
REMARK  200  A    between atoms: _497  and  _499
REMARK  201  A    between atoms: _499  and  _500
REMARK  202  A    between atoms: _499  and  _502
REMARK  203  A    between atoms: _502  and  _503
REMARK  204  A    between atoms: _506  and  _508
REMARK  205  A    between atoms: _508  and  _509
REMARK  206  A    between atoms: _508  and  _511
REMARK  207  A    between atoms: _511  and  _512
REMARK  208  A    between atoms: _515  and  _517
REMARK  209  A    between atoms: _517  and  _518
REMARK  210  A    between atoms: _517  and  _520
REMARK  211  A    between atoms: _520  and  _521
REMARK  212  A    between atoms: _526  and  _528
REMARK  213  A    between atoms: _528  and  _529
REMARK  214  A    between atoms: _528  and  _531
REMARK  215  A    between atoms: _531  and  _532
REMARK  216  A    between atoms: _535  and  _537
REMARK  217  A    between atoms: _537  and  _538
REMARK  218  A    between atoms: _537  and  _540
REMARK  219  A    between atoms: _540  and  _541
REMARK  220  A    between atoms: _541  and  _542
REMARK  221  A    between atoms: _542  and  _543
REMARK  222  A    between atoms: _552  and  _554
REMARK  223  A    between atoms: _554  and  _555
REMARK  224  A    between atoms: _554  and  _557
REMARK  225  A    between atoms: _557  and  _558
REMARK  226  A    between atoms: _558  and  _559
REMARK  227  A    between atoms: _559  and  _560
REMARK  228  A    between atoms: _569  and  _571
REMARK  229  A    between atoms: _571  and  _572
REMARK  230  A    between atoms: _571  and  _574
REMARK  231  A    between atoms: _574  and  _575
REMARK  232  A    between atoms: _575  and  _576
REMARK  233  A    between atoms: _576  and  _577
REMARK  234  A    between atoms: _577  and  _578
REMARK  235  A    between atoms: _582  and  _584
REMARK  236  A    between atoms: _584  and  _585
REMARK  237  A    between atoms: _584  and  _587
REMARK  238  A    between atoms: _587  and  _588
REMARK  239  A    between atoms: _590  and  _592
REMARK  240  A    between atoms: _592  and  _593
REMARK  241  A    between atoms: _592  and  _595
REMARK  242  A    between atoms: _595  and  _596
REMARK  243  A    between atoms: _599  and  _601
REMARK  244  A    between atoms: _601  and  _602
REMARK  245  A    between atoms: _601  and  _604
REMARK  246  A    between atoms: _607  and  _609
REMARK  247  A    between atoms: _609  and  _610
REMARK  248  A    between atoms: _612  and  _614
REMARK  249  A    between atoms: _614  and  _615
REMARK                            x       y       z     vdW  Elec       q    Type
REMARK                         _______ _______ _______ _____ _____    ______ ____
ROOT
ATOM      1  O   HOH     1      41.885   1.748   0.868  0.00  0.00    +0.000 OA
ENDROOT
TORSDOF 0
REMARK  Name = ../refined-set-2016/3ckp/3ckp_pocket.pdb
REMARK  249 active torsions:
REMARK  status: ('A' for Active; 'I' for Inactive)
REMARK    1  A    between atoms: _1  and  _3
REMARK    2  A    between atoms: _3  and  _4
REMARK    3  A    between atoms: _3  and  _6
REMARK    4  A    between atoms: _6  and  _7
REMARK    5  A    between atoms: _7  and  _8
REMARK    6  A    between atoms: _8  and  _9
REMARK    7  A    between atoms: _9  and  _10
REMARK    8  A    between atoms: _14  and  _16
REMARK    9  A    between atoms: _16  and  _17
REMARK   10  A    between atoms: _16  and  _19
REMARK   11  A    between atoms: _19  and  _20
REMARK   12  A    between atoms: _22  and  _24
REMARK   13  A    between atoms: _24  and  _25
REMARK   14  A    between atoms: _27  and  _29
REMARK   15  A    between atoms: _29  and  _30
REMARK   16  A    between atoms: _29  and  _32
REMARK   17  A    between atoms: _32  and  _33
REMARK   18  A    between atoms: _33  and  _34
REMARK   19  A    between atoms: _39  and  _41
REMARK   20  A    between atoms: _41  and  _42
REMARK   21  A    between atoms: _44  and  _46
REMARK   22  A    between atoms: _46  and  _47
REMARK   23  A    between atoms: _46  and  _49
REMARK   24  A    between atoms: _49  and  _50
REMARK   25  A    between atoms: _55  and  _56
REMARK   26  A    between atoms: _58  and  _60
REMARK   27  A    between atoms: _60  and  _61
REMARK   28  A    between atoms: _60  and  _63
REMARK   29  A    between atoms: _63  and  _64
REMARK   30  A    between atoms: _69  and  _70
REMARK   31  A    between atoms: _72  and  _74
REMARK   32  A    between atoms: _74  and  _75
REMARK   33  A    between atoms: _74  and  _77
REMARK   34  A    between atoms: _77  and  _78
REMARK   35  A    between atoms: _81  and  _83
REMARK   36  A    between atoms: _83  and  _84
REMARK   37  A    between atoms: _83  and  _86
REMARK   38  A    between atoms: _89  and  _91
REMARK   39  A    between atoms: _91  and  _92
REMARK   40  A    between atoms: _91  and  _94
REMARK   41  A    between atoms: _94  and  _95
REMARK   42  A    between atoms: _98  and  _100
REMARK   43  A    between atoms: _100  and  _101
REMARK   44  A    between atoms: _100  and  _103
REMARK   45  A    between atoms: _103  and  _104
REMARK   46  A    between atoms: _107  and  _109
REMARK   47  A    between atoms: _109  and  _110
REMARK   48  A    between atoms: _112  and  _114
REMARK   49  A    between atoms: _114  and  _115
REMARK   50  A    between atoms: _114  and  _117
REMARK   51  A    between atoms: _117  and  _118
REMARK   52  A    between atoms: _120  and  _122
REMARK   53  A    between atoms: _122  and  _123
REMARK   54  A    between atoms: _122  and  _125
REMARK   55  A    between atoms: _125  and  _126
REMARK   56  A    between atoms: _128  and  _130
REMARK   57  A    between atoms: _130  and  _131
REMARK   58  A    between atoms: _130  and  _133
REMARK   59  A    between atoms: _133  and  _134
REMARK   60  A    between atoms: _139  and  _141
REMARK   61  A    between atoms: _141  and  _142
REMARK   62  A    between atoms: _141  and  _144
REMARK   63  A    between atoms: _144  and  _145
REMARK   64  A    between atoms: _150  and  _151
REMARK   65  A    between atoms: _153  and  _155
REMARK   66  A    between atoms: _155  and  _156
REMARK   67  A    between atoms: _155  and  _158
REMARK   68  A    between atoms: _162  and  _163
REMARK   69  A    between atoms: _168  and  _170
REMARK   70  A    between atoms: _170  and  _171
REMARK   71  A    between atoms: _170  and  _173
REMARK   72  A    between atoms: _173  and  _174
REMARK   73  A    between atoms: _179  and  _180
REMARK   74  A    between atoms: _182  and  _184
REMARK   75  A    between atoms: _184  and  _185
REMARK   76  A    between atoms: _184  and  _187
REMARK   77  A    between atoms: _187  and  _188
REMARK   78  A    between atoms: _191  and  _193
REMARK   79  A    between atoms: _193  and  _194
REMARK   80  A    between atoms: _193  and  _196
REMARK   81  A    between atoms: _196  and  _197
REMARK   82  A    between atoms: _197  and  _198
REMARK   83  A    between atoms: _203  and  _205
REMARK   84  A    between atoms: _205  and  _206
REMARK   85  A    between atoms: _208  and  _210
REMARK   86  A    between atoms: _210  and  _211
REMARK   87  A    between atoms: _210  and  _213
REMARK   88  A    between atoms: _213  and  _214
REMARK   89  A    between atoms: _214  and  _215
REMARK   90  A    between atoms: _215  and  _216
REMARK   91  A    between atoms: _216  and  _217
REMARK   92  A    between atoms: _221  and  _223
REMARK   93  A    between atoms: _223  and  _224
REMARK   94  A    between atoms: _223  and  _226
REMARK   95  A    between atoms: _226  and  _227
REMARK   96  A    between atoms: _237  and  _239
REMARK   97  A    between atoms: _239  and  _240
REMARK   98  A    between atoms: _239  and  _242
REMARK   99  A    between atoms: _242  and  _243
REMARK  100  A    between atoms: _246  and  _248
REMARK  101  A    between atoms: _248  and  _249
REMARK  102  A    between atoms: _248  and  _251
REMARK  103  A    between atoms: _251  and  _252
REMARK  104  A    between atoms: _252  and  _253
REMARK  105  A    between atoms: _253  and  _254
REMARK  106  A    between atoms: _254  and  _255
REMARK  107  A    between atoms: _259  and  _261
REMARK  108  A    between atoms: _261  and  _262
REMARK  109  A    between atoms: _261  and  _264
REMARK  110  A    between atoms: _264  and  _265
REMARK  111  A    between atoms: _271  and  _273
REMARK  112  A    between atoms: _273  and  _274
REMARK  113  A    between atoms: _273  and  _276
REMARK  114  A    between atoms: _276  and  _277
REMARK  115  A    between atoms: _283  and  _285
REMARK  116  A    between atoms: _285  and  _286
REMARK  117  A    between atoms: _285  and  _288
REMARK  118  A    between atoms: _288  and  _289
REMARK  119  A    between atoms: _292  and  _294
REMARK  120  A    between atoms: _294  and  _295
REMARK  121  A    between atoms: _294  and  _297
REMARK  122  A    between atoms: _297  and  _298
REMARK  123  A    between atoms: _300  and  _302
REMARK  124  A    between atoms: _302  and  _303
REMARK  125  A    between atoms: _302  and  _305
REMARK  126  A    between atoms: _305  and  _306
REMARK  127  A    between atoms: _316  and  _318
REMARK  128  A    between atoms: _318  and  _319
REMARK  129  A    between atoms: _321  and  _323
REMARK  130  A    between atoms: _323  and  _324
REMARK  131  A    between atoms: _323  and  _326
REMARK  132  A    between atoms: _326  and  _327
REMARK  133  A    between atoms: _330  and  _332
REMARK  134  A    between atoms: _332  and  _333
REMARK  135  A    between atoms: _335  and  _337
REMARK  136  A    between atoms: _337  and  _338
REMARK  137  A    between atoms: _337  and  _340
REMARK  138  A    between atoms: _340  and  _341
REMARK  139  A    between atoms: _344  and  _346
REMARK  140  A    between atoms: _346  and  _347
REMARK  141  A    between atoms: _350  and  _352
REMARK  142  A    between atoms: _352  and  _353
REMARK  143  A    between atoms: _352  and  _355
REMARK  144  A    between atoms: _355  and  _356
REMARK  145  A    between atoms: _361  and  _362
REMARK  146  A    between atoms: _364  and  _366
REMARK  147  A    between atoms: _366  and  _367
REMARK  148  A    between atoms: _366  and  _369
REMARK  149  A    between atoms: _369  and  _370
REMARK  150  A    between atoms: _370  and  _371
REMARK  151  A    between atoms: _374  and  _376
REMARK  152  A    between atoms: _376  and  _377
REMARK  153  A    between atoms: _376  and  _379
REMARK  154  A    between atoms: _379  and  _380
REMARK  155  A    between atoms: _383  and  _385
REMARK  156  A    between atoms: _385  and  _386
REMARK  157  A    between atoms: _389  and  _391
REMARK  158  A    between atoms: _391  and  _392
REMARK  159  A    between atoms: _391  and  _394
REMARK  160  A    between atoms: _394  and  _395
REMARK  161  A    between atoms: _395  and  _396
REMARK  162  A    between atoms: _396  and  _397
REMARK  163  A    between atoms: _406  and  _408
REMARK  164  A    between atoms: _408  and  _409
REMARK  165  A    between atoms: _408  and  _411
REMARK  166  A    between atoms: _411  and  _412
REMARK  167  A    between atoms: _415  and  _417
REMARK  168  A    between atoms: _417  and  _418
REMARK  169  A    between atoms: _417  and  _420
REMARK  170  A    between atoms: _420  and  _421
REMARK  171  A    between atoms: _431  and  _433
REMARK  172  A    between atoms: _433  and  _434
REMARK  173  A    between atoms: _433  and  _436
REMARK  174  A    between atoms: _436  and  _437
REMARK  175  A    between atoms: _442  and  _443
REMARK  176  A    between atoms: _445  and  _447
REMARK  177  A    between atoms: _447  and  _448
REMARK  178  A    between atoms: _447  and  _450
REMARK  179  A    between atoms: _450  and  _451
REMARK  180  A    between atoms: _451  and  _452
REMARK  181  A    between atoms: _452  and  _453
REMARK  182  A    between atoms: _453  and  _454
REMARK  183  A    between atoms: _458  and  _460
REMARK  184  A    between atoms: _460  and  _461
REMARK  185  A    between atoms: _460  and  _463
REMARK  186  A    between atoms: _463  and  _464
REMARK  187  A    between atoms: _467  and  _469
REMARK  188  A    between atoms: _469  and  _470
REMARK  189  A    between atoms: _469  and  _472
REMARK  190  A    between atoms: _475  and  _477
REMARK  191  A    between atoms: _477  and  _478
REMARK  192  A    between atoms: _477  and  _480
REMARK  193  A    between atoms: _480  and  _481
REMARK  194  A    between atoms: _484  and  _486
REMARK  195  A    between atoms: _486  and  _487
REMARK  196  A    between atoms: _486  and  _489
REMARK  197  A    between atoms: _489  and  _490
REMARK  198  A    between atoms: _492  and  _494
REMARK  199  A    between atoms: _494  and  _495
REMARK  200  A    between atoms: _497  and  _499
REMARK  201  A    between atoms: _499  and  _500
REMARK  202  A    between atoms: _499  and  _502
REMARK  203  A    between atoms: _502  and  _503
REMARK  204  A    between atoms: _506  and  _508
REMARK  205  A    between atoms: _508  and  _509
REMARK  206  A    between atoms: _508  and  _511
REMARK  207  A    between atoms: _511  and  _512
REMARK  208  A    between atoms: _515  and  _517
REMARK  209  A    between atoms: _517  and  _518
REMARK  210  A    between atoms: _517  and  _520
REMARK  211  A    between atoms: _520  and  _521
REMARK  212  A    between atoms: _526  and  _528
REMARK  213  A    between atoms: _528  and  _529
REMARK  214  A    between atoms: _528  and  _531
REMARK  215  A    between atoms: _531  and  _532
REMARK  216  A    between atoms: _535  and  _537
REMARK  217  A    between atoms: _537  and  _538
REMARK  218  A    between atoms: _537  and  _540
REMARK  219  A    between atoms: _540  and  _541
REMARK  220  A    between atoms: _541  and  _542
REMARK  221  A    between atoms: _542  and  _543
REMARK  222  A    between atoms: _552  and  _554
REMARK  223  A    between atoms: _554  and  _555
REMARK  224  A    between atoms: _554  and  _557
REMARK  225  A    between atoms: _557  and  _558
REMARK  226  A    between atoms: _558  and  _559
REMARK  227  A    between atoms: _559  and  _560
REMARK  228  A    between atoms: _569  and  _571
REMARK  229  A    between atoms: _571  and  _572
REMARK  230  A    between atoms: _571  and  _574
REMARK  231  A    between atoms: _574  and  _575
REMARK  232  A    between atoms: _575  and  _576
REMARK  233  A    between atoms: _576  and  _577
REMARK  234  A    between atoms: _577  and  _578
REMARK  235  A    between atoms: _582  and  _584
REMARK  236  A    between atoms: _584  and  _585
REMARK  237  A    between atoms: _584  and  _587
REMARK  238  A    between atoms: _587  and  _588
REMARK  239  A    between atoms: _590  and  _592
REMARK  240  A    between atoms: _592  and  _593
REMARK  241  A    between atoms: _592  and  _595
REMARK  242  A    between atoms: _595  and  _596
REMARK  243  A    between atoms: _599  and  _601
REMARK  244  A    between atoms: _601  and  _602
REMARK  245  A    between atoms: _601  and  _604
REMARK  246  A    between atoms: _607  and  _609
REMARK  247  A    between atoms: _609  and  _610
REMARK  248  A    between atoms: _612  and  _614
REMARK  249  A    between atoms: _614  and  _615
REMARK                            x       y       z     vdW  Elec       q    Type
REMARK                         _______ _______ _______ _____ _____    ______ ____
ROOT
ATOM      1  O   HOH     1      37.643   0.477   5.699  0.00  0.00    +0.000 OA
ENDROOT
TORSDOF 0
REMARK  Name = ../refined-set-2016/3ckp/3ckp_pocket.pdb
REMARK  249 active torsions:
REMARK  status: ('A' for Active; 'I' for Inactive)
REMARK    1  A    between atoms: _1  and  _3
REMARK    2  A    between atoms: _3  and  _4
REMARK    3  A    between atoms: _3  and  _6
REMARK    4  A    between atoms: _6  and  _7
REMARK    5  A    between atoms: _7  and  _8
REMARK    6  A    between atoms: _8  and  _9
REMARK    7  A    between atoms: _9  and  _10
REMARK    8  A    between atoms: _14  and  _16
REMARK    9  A    between atoms: _16  and  _17
REMARK   10  A    between atoms: _16  and  _19
REMARK   11  A    between atoms: _19  and  _20
REMARK   12  A    between atoms: _22  and  _24
REMARK   13  A    between atoms: _24  and  _25
REMARK   14  A    between atoms: _27  and  _29
REMARK   15  A    between atoms: _29  and  _30
REMARK   16  A    between atoms: _29  and  _32
REMARK   17  A    between atoms: _32  and  _33
REMARK   18  A    between atoms: _33  and  _34
REMARK   19  A    between atoms: _39  and  _41
REMARK   20  A    between atoms: _41  and  _42
REMARK   21  A    between atoms: _44  and  _46
REMARK   22  A    between atoms: _46  and  _47
REMARK   23  A    between atoms: _46  and  _49
REMARK   24  A    between atoms: _49  and  _50
REMARK   25  A    between atoms: _55  and  _56
REMARK   26  A    between atoms: _58  and  _60
REMARK   27  A    between atoms: _60  and  _61
REMARK   28  A    between atoms: _60  and  _63
REMARK   29  A    between atoms: _63  and  _64
REMARK   30  A    between atoms: _69  and  _70
REMARK   31  A    between atoms: _72  and  _74
REMARK   32  A    between atoms: _74  and  _75
REMARK   33  A    between atoms: _74  and  _77
REMARK   34  A    between atoms: _77  and  _78
REMARK   35  A    between atoms: _81  and  _83
REMARK   36  A    between atoms: _83  and  _84
REMARK   37  A    between atoms: _83  and  _86
REMARK   38  A    between atoms: _89  and  _91
REMARK   39  A    between atoms: _91  and  _92
REMARK   40  A    between atoms: _91  and  _94
REMARK   41  A    between atoms: _94  and  _95
REMARK   42  A    between atoms: _98  and  _100
REMARK   43  A    between atoms: _100  and  _101
REMARK   44  A    between atoms: _100  and  _103
REMARK   45  A    between atoms: _103  and  _104
REMARK   46  A    between atoms: _107  and  _109
REMARK   47  A    between atoms: _109  and  _110
REMARK   48  A    between atoms: _112  and  _114
REMARK   49  A    between atoms: _114  and  _115
REMARK   50  A    between atoms: _114  and  _117
REMARK   51  A    between atoms: _117  and  _118
REMARK   52  A    between atoms: _120  and  _122
REMARK   53  A    between atoms: _122  and  _123
REMARK   54  A    between atoms: _122  and  _125
REMARK   55  A    between atoms: _125  and  _126
REMARK   56  A    between atoms: _128  and  _130
REMARK   57  A    between atoms: _130  and  _131
REMARK   58  A    between atoms: _130  and  _133
REMARK   59  A    between atoms: _133  and  _134
REMARK   60  A    between atoms: _139  and  _141
REMARK   61  A    between atoms: _141  and  _142
REMARK   62  A    between atoms: _141  and  _144
REMARK   63  A    between atoms: _144  and  _145
REMARK   64  A    between atoms: _150  and  _151
REMARK   65  A    between atoms: _153  and  _155
REMARK   66  A    between atoms: _155  and  _156
REMARK   67  A    between atoms: _155  and  _158
REMARK   68  A    between atoms: _162  and  _163
REMARK   69  A    between atoms: _168  and  _170
REMARK   70  A    between atoms: _170  and  _171
REMARK   71  A    between atoms: _170  and  _173
REMARK   72  A    between atoms: _173  and  _174
REMARK   73  A    between atoms: _179  and  _180
REMARK   74  A    between atoms: _182  and  _184
REMARK   75  A    between atoms: _184  and  _185
REMARK   76  A    between atoms: _184  and  _187
REMARK   77  A    between atoms: _187  and  _188
REMARK   78  A    between atoms: _191  and  _193
REMARK   79  A    between atoms: _193  and  _194
REMARK   80  A    between atoms: _193  and  _196
REMARK   81  A    between atoms: _196  and  _197
REMARK   82  A    between atoms: _197  and  _198
REMARK   83  A    between atoms: _203  and  _205
REMARK   84  A    between atoms: _205  and  _206
REMARK   85  A    between atoms: _208  and  _210
REMARK   86  A    between atoms: _210  and  _211
REMARK   87  A    between atoms: _210  and  _213
REMARK   88  A    between atoms: _213  and  _214
REMARK   89  A    between atoms: _214  and  _215
REMARK   90  A    between atoms: _215  and  _216
REMARK   91  A    between atoms: _216  and  _217
REMARK   92  A    between atoms: _221  and  _223
REMARK   93  A    between atoms: _223  and  _224
REMARK   94  A    between atoms: _223  and  _226
REMARK   95  A    between atoms: _226  and  _227
REMARK   96  A    between atoms: _237  and  _239
REMARK   97  A    between atoms: _239  and  _240
REMARK   98  A    between atoms: _239  and  _242
REMARK   99  A    between atoms: _242  and  _243
REMARK  100  A    between atoms: _246  and  _248
REMARK  101  A    between atoms: _248  and  _249
REMARK  102  A    between atoms: _248  and  _251
REMARK  103  A    between atoms: _251  and  _252
REMARK  104  A    between atoms: _252  and  _253
REMARK  105  A    between atoms: _253  and  _254
REMARK  106  A    between atoms: _254  and  _255
REMARK  107  A    between atoms: _259  and  _261
REMARK  108  A    between atoms: _261  and  _262
REMARK  109  A    between atoms: _261  and  _264
REMARK  110  A    between atoms: _264  and  _265
REMARK  111  A    between atoms: _271  and  _273
REMARK  112  A    between atoms: _273  and  _274
REMARK  113  A    between atoms: _273  and  _276
REMARK  114  A    between atoms: _276  and  _277
REMARK  115  A    between atoms: _283  and  _285
REMARK  116  A    between atoms: _285  and  _286
REMARK  117  A    between atoms: _285  and  _288
REMARK  118  A    between atoms: _288  and  _289
REMARK  119  A    between atoms: _292  and  _294
REMARK  120  A    between atoms: _294  and  _295
REMARK  121  A    between atoms: _294  and  _297
REMARK  122  A    between atoms: _297  and  _298
REMARK  123  A    between atoms: _300  and  _302
REMARK  124  A    between atoms: _302  and  _303
REMARK  125  A    between atoms: _302  and  _305
REMARK  126  A    between atoms: _305  and  _306
REMARK  127  A    between atoms: _316  and  _318
REMARK  128  A    between atoms: _318  and  _319
REMARK  129  A    between atoms: _321  and  _323
REMARK  130  A    between atoms: _323  and  _324
REMARK  131  A    between atoms: _323  and  _326
REMARK  132  A    between atoms: _326  and  _327
REMARK  133  A    between atoms: _330  and  _332
REMARK  134  A    between atoms: _332  and  _333
REMARK  135  A    between atoms: _335  and  _337
REMARK  136  A    between atoms: _337  and  _338
REMARK  137  A    between atoms: _337  and  _340
REMARK  138  A    between atoms: _340  and  _341
REMARK  139  A    between atoms: _344  and  _346
REMARK  140  A    between atoms: _346  and  _347
REMARK  141  A    between atoms: _350  and  _352
REMARK  142  A    between atoms: _352  and  _353
REMARK  143  A    between atoms: _352  and  _355
REMARK  144  A    between atoms: _355  and  _356
REMARK  145  A    between atoms: _361  and  _362
REMARK  146  A    between atoms: _364  and  _366
REMARK  147  A    between atoms: _366  and  _367
REMARK  148  A    between atoms: _366  and  _369
REMARK  149  A    between atoms: _369  and  _370
REMARK  150  A    between atoms: _370  and  _371
REMARK  151  A    between atoms: _374  and  _376
REMARK  152  A    between atoms: _376  and  _377
REMARK  153  A    between atoms: _376  and  _379
REMARK  154  A    between atoms: _379  and  _380
REMARK  155  A    between atoms: _383  and  _385
REMARK  156  A    between atoms: _385  and  _386
REMARK  157  A    between atoms: _389  and  _391
REMARK  158  A    between atoms: _391  and  _392
REMARK  159  A    between atoms: _391  and  _394
REMARK  160  A    between atoms: _394  and  _395
REMARK  161  A    between atoms: _395  and  _396
REMARK  162  A    between atoms: _396  and  _397
REMARK  163  A    between atoms: _406  and  _408
REMARK  164  A    between atoms: _408  and  _409
REMARK  165  A    between atoms: _408  and  _411
REMARK  166  A    between atoms: _411  and  _412
REMARK  167  A    between atoms: _415  and  _417
REMARK  168  A    between atoms: _417  and  _418
REMARK  169  A    between atoms: _417  and  _420
REMARK  170  A    between atoms: _420  and  _421
REMARK  171  A    between atoms: _431  and  _433
REMARK  172  A    between atoms: _433  and  _434
REMARK  173  A    between atoms: _433  and  _436
REMARK  174  A    between atoms: _436  and  _437
REMARK  175  A    between atoms: _442  and  _443
REMARK  176  A    between atoms: _445  and  _447
REMARK  177  A    between atoms: _447  and  _448
REMARK  178  A    between atoms: _447  and  _450
REMARK  179  A    between atoms: _450  and  _451
REMARK  180  A    between atoms: _451  and  _452
REMARK  181  A    between atoms: _452  and  _453
REMARK  182  A    between atoms: _453  and  _454
REMARK  183  A    between atoms: _458  and  _460
REMARK  184  A    between atoms: _460  and  _461
REMARK  185  A    between atoms: _460  and  _463
REMARK  186  A    between atoms: _463  and  _464
REMARK  187  A    between atoms: _467  and  _469
REMARK  188  A    between atoms: _469  and  _470
REMARK  189  A    between atoms: _469  and  _472
REMARK  190  A    between atoms: _475  and  _477
REMARK  191  A    between atoms: _477  and  _478
REMARK  192  A    between atoms: _477  and  _480
REMARK  193  A    between atoms: _480  and  _481
REMARK  194  A    between atoms: _484  and  _486
REMARK  195  A    between atoms: _486  and  _487
REMARK  196  A    between atoms: _486  and  _489
REMARK  197  A    between atoms: _489  and  _490
REMARK  198  A    between atoms: _492  and  _494
REMARK  199  A    between atoms: _494  and  _495
REMARK  200  A    between atoms: _497  and  _499
REMARK  201  A    between atoms: _499  and  _500
REMARK  202  A    between atoms: _499  and  _502
REMARK  203  A    between atoms: _502  and  _503
REMARK  204  A    between atoms: _506  and  _508
REMARK  205  A    between atoms: _508  and  _509
REMARK  206  A    between atoms: _508  and  _511
REMARK  207  A    between atoms: _511  and  _512
REMARK  208  A    between atoms: _515  and  _517
REMARK  209  A    between atoms: _517  and  _518
REMARK  210  A    between atoms: _517  and  _520
REMARK  211  A    between atoms: _520  and  _521
REMARK  212  A    between atoms: _526  and  _528
REMARK  213  A    between atoms: _528  and  _529
REMARK  214  A    between atoms: _528  and  _531
REMARK  215  A    between atoms: _531  and  _532
REMARK  216  A    between atoms: _535  and  _537
REMARK  217  A    between atoms: _537  and  _538
REMARK  218  A    between atoms: _537  and  _540
REMARK  219  A    between atoms: _540  and  _541
REMARK  220  A    between atoms: _541  and  _542
REMARK  221  A    between atoms: _542  and  _543
REMARK  222  A    between atoms: _552  and  _554
REMARK  223  A    between atoms: _554  and  _555
REMARK  224  A    between atoms: _554  and  _557
REMARK  225  A    between atoms: _557  and  _558
REMARK  226  A    between atoms: _558  and  _559
REMARK  227  A    between atoms: _559  and  _560
REMARK  228  A    between atoms: _569  and  _571
REMARK  229  A    between atoms: _571  and  _572
REMARK  230  A    between atoms: _571  and  _574
REMARK  231  A    between atoms: _574  and  _575
REMARK  232  A    between atoms: _575  and  _576
REMARK  233  A    between atoms: _576  and  _577
REMARK  234  A    between atoms: _577  and  _578
REMARK  235  A    between atoms: _582  and  _584
REMARK  236  A    between atoms: _584  and  _585
REMARK  237  A    between atoms: _584  and  _587
REMARK  238  A    between atoms: _587  and  _588
REMARK  239  A    between atoms: _590  and  _592
REMARK  240  A    between atoms: _592  and  _593
REMARK  241  A    between atoms: _592  and  _595
REMARK  242  A    between atoms: _595  and  _596
REMARK  243  A    between atoms: _599  and  _601
REMARK  244  A    between atoms: _601  and  _602
REMARK  245  A    between atoms: _601  and  _604
REMARK  246  A    between atoms: _607  and  _609
REMARK  247  A    between atoms: _609  and  _610
REMARK  248  A    between atoms: _612  and  _614
REMARK  249  A    between atoms: _614  and  _615
REMARK                            x       y       z     vdW  Elec       q    Type
REMARK                         _______ _______ _______ _____ _____    ______ ____
ROOT
ATOM      1  O   HOH     1      31.565  10.364   4.785  0.00  0.00    +0.000 OA
ENDROOT
TORSDOF 0
REMARK  Name = ../refined-set-2016/3ckp/3ckp_pocket.pdb
REMARK  249 active torsions:
REMARK  status: ('A' for Active; 'I' for Inactive)
REMARK    1  A    between atoms: _1  and  _3
REMARK    2  A    between atoms: _3  and  _4
REMARK    3  A    between atoms: _3  and  _6
REMARK    4  A    between atoms: _6  and  _7
REMARK    5  A    between atoms: _7  and  _8
REMARK    6  A    between atoms: _8  and  _9
REMARK    7  A    between atoms: _9  and  _10
REMARK    8  A    between atoms: _14  and  _16
REMARK    9  A    between atoms: _16  and  _17
REMARK   10  A    between atoms: _16  and  _19
REMARK   11  A    between atoms: _19  and  _20
REMARK   12  A    between atoms: _22  and  _24
REMARK   13  A    between atoms: _24  and  _25
REMARK   14  A    between atoms: _27  and  _29
REMARK   15  A    between atoms: _29  and  _30
REMARK   16  A    between atoms: _29  and  _32
REMARK   17  A    between atoms: _32  and  _33
REMARK   18  A    between atoms: _33  and  _34
REMARK   19  A    between atoms: _39  and  _41
REMARK   20  A    between atoms: _41  and  _42
REMARK   21  A    between atoms: _44  and  _46
REMARK   22  A    between atoms: _46  and  _47
REMARK   23  A    between atoms: _46  and  _49
REMARK   24  A    between atoms: _49  and  _50
REMARK   25  A    between atoms: _55  and  _56
REMARK   26  A    between atoms: _58  and  _60
REMARK   27  A    between atoms: _60  and  _61
REMARK   28  A    between atoms: _60  and  _63
REMARK   29  A    between atoms: _63  and  _64
REMARK   30  A    between atoms: _69  and  _70
REMARK   31  A    between atoms: _72  and  _74
REMARK   32  A    between atoms: _74  and  _75
REMARK   33  A    between atoms: _74  and  _77
REMARK   34  A    between atoms: _77  and  _78
REMARK   35  A    between atoms: _81  and  _83
REMARK   36  A    between atoms: _83  and  _84
REMARK   37  A    between atoms: _83  and  _86
REMARK   38  A    between atoms: _89  and  _91
REMARK   39  A    between atoms: _91  and  _92
REMARK   40  A    between atoms: _91  and  _94
REMARK   41  A    between atoms: _94  and  _95
REMARK   42  A    between atoms: _98  and  _100
REMARK   43  A    between atoms: _100  and  _101
REMARK   44  A    between atoms: _100  and  _103
REMARK   45  A    between atoms: _103  and  _104
REMARK   46  A    between atoms: _107  and  _109
REMARK   47  A    between atoms: _109  and  _110
REMARK   48  A    between atoms: _112  and  _114
REMARK   49  A    between atoms: _114  and  _115
REMARK   50  A    between atoms: _114  and  _117
REMARK   51  A    between atoms: _117  and  _118
REMARK   52  A    between atoms: _120  and  _122
REMARK   53  A    between atoms: _122  and  _123
REMARK   54  A    between atoms: _122  and  _125
REMARK   55  A    between atoms: _125  and  _126
REMARK   56  A    between atoms: _128  and  _130
REMARK   57  A    between atoms: _130  and  _131
REMARK   58  A    between atoms: _130  and  _133
REMARK   59  A    between atoms: _133  and  _134
REMARK   60  A    between atoms: _139  and  _141
REMARK   61  A    between atoms: _141  and  _142
REMARK   62  A    between atoms: _141  and  _144
REMARK   63  A    between atoms: _144  and  _145
REMARK   64  A    between atoms: _150  and  _151
REMARK   65  A    between atoms: _153  and  _155
REMARK   66  A    between atoms: _155  and  _156
REMARK   67  A    between atoms: _155  and  _158
REMARK   68  A    between atoms: _162  and  _163
REMARK   69  A    between atoms: _168  and  _170
REMARK   70  A    between atoms: _170  and  _171
REMARK   71  A    between atoms: _170  and  _173
REMARK   72  A    between atoms: _173  and  _174
REMARK   73  A    between atoms: _179  and  _180
REMARK   74  A    between atoms: _182  and  _184
REMARK   75  A    between atoms: _184  and  _185
REMARK   76  A    between atoms: _184  and  _187
REMARK   77  A    between atoms: _187  and  _188
REMARK   78  A    between atoms: _191  and  _193
REMARK   79  A    between atoms: _193  and  _194
REMARK   80  A    between atoms: _193  and  _196
REMARK   81  A    between atoms: _196  and  _197
REMARK   82  A    between atoms: _197  and  _198
REMARK   83  A    between atoms: _203  and  _205
REMARK   84  A    between atoms: _205  and  _206
REMARK   85  A    between atoms: _208  and  _210
REMARK   86  A    between atoms: _210  and  _211
REMARK   87  A    between atoms: _210  and  _213
REMARK   88  A    between atoms: _213  and  _214
REMARK   89  A    between atoms: _214  and  _215
REMARK   90  A    between atoms: _215  and  _216
REMARK   91  A    between atoms: _216  and  _217
REMARK   92  A    between atoms: _221  and  _223
REMARK   93  A    between atoms: _223  and  _224
REMARK   94  A    between atoms: _223  and  _226
REMARK   95  A    between atoms: _226  and  _227
REMARK   96  A    between atoms: _237  and  _239
REMARK   97  A    between atoms: _239  and  _240
REMARK   98  A    between atoms: _239  and  _242
REMARK   99  A    between atoms: _242  and  _243
REMARK  100  A    between atoms: _246  and  _248
REMARK  101  A    between atoms: _248  and  _249
REMARK  102  A    between atoms: _248  and  _251
REMARK  103  A    between atoms: _251  and  _252
REMARK  104  A    between atoms: _252  and  _253
REMARK  105  A    between atoms: _253  and  _254
REMARK  106  A    between atoms: _254  and  _255
REMARK  107  A    between atoms: _259  and  _261
REMARK  108  A    between atoms: _261  and  _262
REMARK  109  A    between atoms: _261  and  _264
REMARK  110  A    between atoms: _264  and  _265
REMARK  111  A    between atoms: _271  and  _273
REMARK  112  A    between atoms: _273  and  _274
REMARK  113  A    between atoms: _273  and  _276
REMARK  114  A    between atoms: _276  and  _277
REMARK  115  A    between atoms: _283  and  _285
REMARK  116  A    between atoms: _285  and  _286
REMARK  117  A    between atoms: _285  and  _288
REMARK  118  A    between atoms: _288  and  _289
REMARK  119  A    between atoms: _292  and  _294
REMARK  120  A    between atoms: _294  and  _295
REMARK  121  A    between atoms: _294  and  _297
REMARK  122  A    between atoms: _297  and  _298
REMARK  123  A    between atoms: _300  and  _302
REMARK  124  A    between atoms: _302  and  _303
REMARK  125  A    between atoms: _302  and  _305
REMARK  126  A    between atoms: _305  and  _306
REMARK  127  A    between atoms: _316  and  _318
REMARK  128  A    between atoms: _318  and  _319
REMARK  129  A    between atoms: _321  and  _323
REMARK  130  A    between atoms: _323  and  _324
REMARK  131  A    between atoms: _323  and  _326
REMARK  132  A    between atoms: _326  and  _327
REMARK  133  A    between atoms: _330  and  _332
REMARK  134  A    between atoms: _332  and  _333
REMARK  135  A    between atoms: _335  and  _337
REMARK  136  A    between atoms: _337  and  _338
REMARK  137  A    between atoms: _337  and  _340
REMARK  138  A    between atoms: _340  and  _341
REMARK  139  A    between atoms: _344  and  _346
REMARK  140  A    between atoms: _346  and  _347
REMARK  141  A    between atoms: _350  and  _352
REMARK  142  A    between atoms: _352  and  _353
REMARK  143  A    between atoms: _352  and  _355
REMARK  144  A    between atoms: _355  and  _356
REMARK  145  A    between atoms: _361  and  _362
REMARK  146  A    between atoms: _364  and  _366
REMARK  147  A    between atoms: _366  and  _367
REMARK  148  A    between atoms: _366  and  _369
REMARK  149  A    between atoms: _369  and  _370
REMARK  150  A    between atoms: _370  and  _371
REMARK  151  A    between atoms: _374  and  _376
REMARK  152  A    between atoms: _376  and  _377
REMARK  153  A    between atoms: _376  and  _379
REMARK  154  A    between atoms: _379  and  _380
REMARK  155  A    between atoms: _383  and  _385
REMARK  156  A    between atoms: _385  and  _386
REMARK  157  A    between atoms: _389  and  _391
REMARK  158  A    between atoms: _391  and  _392
REMARK  159  A    between atoms: _391  and  _394
REMARK  160  A    between atoms: _394  and  _395
REMARK  161  A    between atoms: _395  and  _396
REMARK  162  A    between atoms: _396  and  _397
REMARK  163  A    between atoms: _406  and  _408
REMARK  164  A    between atoms: _408  and  _409
REMARK  165  A    between atoms: _408  and  _411
REMARK  166  A    between atoms: _411  and  _412
REMARK  167  A    between atoms: _415  and  _417
REMARK  168  A    between atoms: _417  and  _418
REMARK  169  A    between atoms: _417  and  _420
REMARK  170  A    between atoms: _420  and  _421
REMARK  171  A    between atoms: _431  and  _433
REMARK  172  A    between atoms: _433  and  _434
REMARK  173  A    between atoms: _433  and  _436
REMARK  174  A    between atoms: _436  and  _437
REMARK  175  A    between atoms: _442  and  _443
REMARK  176  A    between atoms: _445  and  _447
REMARK  177  A    between atoms: _447  and  _448
REMARK  178  A    between atoms: _447  and  _450
REMARK  179  A    between atoms: _450  and  _451
REMARK  180  A    between atoms: _451  and  _452
REMARK  181  A    between atoms: _452  and  _453
REMARK  182  A    between atoms: _453  and  _454
REMARK  183  A    between atoms: _458  and  _460
REMARK  184  A    between atoms: _460  and  _461
REMARK  185  A    between atoms: _460  and  _463
REMARK  186  A    between atoms: _463  and  _464
REMARK  187  A    between atoms: _467  and  _469
REMARK  188  A    between atoms: _469  and  _470
REMARK  189  A    between atoms: _469  and  _472
REMARK  190  A    between atoms: _475  and  _477
REMARK  191  A    between atoms: _477  and  _478
REMARK  192  A    between atoms: _477  and  _480
REMARK  193  A    between atoms: _480  and  _481
REMARK  194  A    between atoms: _484  and  _486
REMARK  195  A    between atoms: _486  and  _487
REMARK  196  A    between atoms: _486  and  _489
REMARK  197  A    between atoms: _489  and  _490
REMARK  198  A    between atoms: _492  and  _494
REMARK  199  A    between atoms: _494  and  _495
REMARK  200  A    between atoms: _497  and  _499
REMARK  201  A    between atoms: _499  and  _500
REMARK  202  A    between atoms: _499  and  _502
REMARK  203  A    between atoms: _502  and  _503
REMARK  204  A    between atoms: _506  and  _508
REMARK  205  A    between atoms: _508  and  _509
REMARK  206  A    between atoms: _508  and  _511
REMARK  207  A    between atoms: _511  and  _512
REMARK  208  A    between atoms: _515  and  _517
REMARK  209  A    between atoms: _517  and  _518
REMARK  210  A    between atoms: _517  and  _520
REMARK  211  A    between atoms: _520  and  _521
REMARK  212  A    between atoms: _526  and  _528
REMARK  213  A    between atoms: _528  and  _529
REMARK  214  A    between atoms: _528  and  _531
REMARK  215  A    between atoms: _531  and  _532
REMARK  216  A    between atoms: _535  and  _537
REMARK  217  A    between atoms: _537  and  _538
REMARK  218  A    between atoms: _537  and  _540
REMARK  219  A    between atoms: _540  and  _541
REMARK  220  A    between atoms: _541  and  _542
REMARK  221  A    between atoms: _542  and  _543
REMARK  222  A    between atoms: _552  and  _554
REMARK  223  A    between atoms: _554  and  _555
REMARK  224  A    between atoms: _554  and  _557
REMARK  225  A    between atoms: _557  and  _558
REMARK  226  A    between atoms: _558  and  _559
REMARK  227  A    between atoms: _559  and  _560
REMARK  228  A    between atoms: _569  and  _571
REMARK  229  A    between atoms: _571  and  _572
REMARK  230  A    between atoms: _571  and  _574
REMARK  231  A    between atoms: _574  and  _575
REMARK  232  A    between atoms: _575  and  _576
REMARK  233  A    between atoms: _576  and  _577
REMARK  234  A    between atoms: _577  and  _578
REMARK  235  A    between atoms: _582  and  _584
REMARK  236  A    between atoms: _584  and  _585
REMARK  237  A    between atoms: _584  and  _587
REMARK  238  A    between atoms: _587  and  _588
REMARK  239  A    between atoms: _590  and  _592
REMARK  240  A    between atoms: _592  and  _593
REMARK  241  A    between atoms: _592  and  _595
REMARK  242  A    between atoms: _595  and  _596
REMARK  243  A    between atoms: _599  and  _601
REMARK  244  A    between atoms: _601  and  _602
REMARK  245  A    between atoms: _601  and  _604
REMARK  246  A    between atoms: _607  and  _609
REMARK  247  A    between atoms: _609  and  _610
REMARK  248  A    between atoms: _612  and  _614
REMARK  249  A    between atoms: _614  and  _615
REMARK                            x       y       z     vdW  Elec       q    Type
REMARK                         _______ _______ _______ _____ _____    ______ ____
ROOT
ATOM      1  O   HOH     1      23.161   9.387  10.365  0.00  0.00    +0.000 OA
ENDROOT
TORSDOF 0
REMARK  Name = ../refined-set-2016/3ckp/3ckp_pocket.pdb
REMARK  249 active torsions:
REMARK  status: ('A' for Active; 'I' for Inactive)
REMARK    1  A    between atoms: _1  and  _3
REMARK    2  A    between atoms: _3  and  _4
REMARK    3  A    between atoms: _3  and  _6
REMARK    4  A    between atoms: _6  and  _7
REMARK    5  A    between atoms: _7  and  _8
REMARK    6  A    between atoms: _8  and  _9
REMARK    7  A    between atoms: _9  and  _10
REMARK    8  A    between atoms: _14  and  _16
REMARK    9  A    between atoms: _16  and  _17
REMARK   10  A    between atoms: _16  and  _19
REMARK   11  A    between atoms: _19  and  _20
REMARK   12  A    between atoms: _22  and  _24
REMARK   13  A    between atoms: _24  and  _25
REMARK   14  A    between atoms: _27  and  _29
REMARK   15  A    between atoms: _29  and  _30
REMARK   16  A    between atoms: _29  and  _32
REMARK   17  A    between atoms: _32  and  _33
REMARK   18  A    between atoms: _33  and  _34
REMARK   19  A    between atoms: _39  and  _41
REMARK   20  A    between atoms: _41  and  _42
REMARK   21  A    between atoms: _44  and  _46
REMARK   22  A    between atoms: _46  and  _47
REMARK   23  A    between atoms: _46  and  _49
REMARK   24  A    between atoms: _49  and  _50
REMARK   25  A    between atoms: _55  and  _56
REMARK   26  A    between atoms: _58  and  _60
REMARK   27  A    between atoms: _60  and  _61
REMARK   28  A    between atoms: _60  and  _63
REMARK   29  A    between atoms: _63  and  _64
REMARK   30  A    between atoms: _69  and  _70
REMARK   31  A    between atoms: _72  and  _74
REMARK   32  A    between atoms: _74  and  _75
REMARK   33  A    between atoms: _74  and  _77
REMARK   34  A    between atoms: _77  and  _78
REMARK   35  A    between atoms: _81  and  _83
REMARK   36  A    between atoms: _83  and  _84
REMARK   37  A    between atoms: _83  and  _86
REMARK   38  A    between atoms: _89  and  _91
REMARK   39  A    between atoms: _91  and  _92
REMARK   40  A    between atoms: _91  and  _94
REMARK   41  A    between atoms: _94  and  _95
REMARK   42  A    between atoms: _98  and  _100
REMARK   43  A    between atoms: _100  and  _101
REMARK   44  A    between atoms: _100  and  _103
REMARK   45  A    between atoms: _103  and  _104
REMARK   46  A    between atoms: _107  and  _109
REMARK   47  A    between atoms: _109  and  _110
REMARK   48  A    between atoms: _112  and  _114
REMARK   49  A    between atoms: _114  and  _115
REMARK   50  A    between atoms: _114  and  _117
REMARK   51  A    between atoms: _117  and  _118
REMARK   52  A    between atoms: _120  and  _122
REMARK   53  A    between atoms: _122  and  _123
REMARK   54  A    between atoms: _122  and  _125
REMARK   55  A    between atoms: _125  and  _126
REMARK   56  A    between atoms: _128  and  _130
REMARK   57  A    between atoms: _130  and  _131
REMARK   58  A    between atoms: _130  and  _133
REMARK   59  A    between atoms: _133  and  _134
REMARK   60  A    between atoms: _139  and  _141
REMARK   61  A    between atoms: _141  and  _142
REMARK   62  A    between atoms: _141  and  _144
REMARK   63  A    between atoms: _144  and  _145
REMARK   64  A    between atoms: _150  and  _151
REMARK   65  A    between atoms: _153  and  _155
REMARK   66  A    between atoms: _155  and  _156
REMARK   67  A    between atoms: _155  and  _158
REMARK   68  A    between atoms: _162  and  _163
REMARK   69  A    between atoms: _168  and  _170
REMARK   70  A    between atoms: _170  and  _171
REMARK   71  A    between atoms: _170  and  _173
REMARK   72  A    between atoms: _173  and  _174
REMARK   73  A    between atoms: _179  and  _180
REMARK   74  A    between atoms: _182  and  _184
REMARK   75  A    between atoms: _184  and  _185
REMARK   76  A    between atoms: _184  and  _187
REMARK   77  A    between atoms: _187  and  _188
REMARK   78  A    between atoms: _191  and  _193
REMARK   79  A    between atoms: _193  and  _194
REMARK   80  A    between atoms: _193  and  _196
REMARK   81  A    between atoms: _196  and  _197
REMARK   82  A    between atoms: _197  and  _198
REMARK   83  A    between atoms: _203  and  _205
REMARK   84  A    between atoms: _205  and  _206
REMARK   85  A    between atoms: _208  and  _210
REMARK   86  A    between atoms: _210  and  _211
REMARK   87  A    between atoms: _210  and  _213
REMARK   88  A    between atoms: _213  and  _214
REMARK   89  A    between atoms: _214  and  _215
REMARK   90  A    between atoms: _215  and  _216
REMARK   91  A    between atoms: _216  and  _217
REMARK   92  A    between atoms: _221  and  _223
REMARK   93  A    between atoms: _223  and  _224
REMARK   94  A    between atoms: _223  and  _226
REMARK   95  A    between atoms: _226  and  _227
REMARK   96  A    between atoms: _237  and  _239
REMARK   97  A    between atoms: _239  and  _240
REMARK   98  A    between atoms: _239  and  _242
REMARK   99  A    between atoms: _242  and  _243
REMARK  100  A    between atoms: _246  and  _248
REMARK  101  A    between atoms: _248  and  _249
REMARK  102  A    between atoms: _248  and  _251
REMARK  103  A    between atoms: _251  and  _252
REMARK  104  A    between atoms: _252  and  _253
REMARK  105  A    between atoms: _253  and  _254
REMARK  106  A    between atoms: _254  and  _255
REMARK  107  A    between atoms: _259  and  _261
REMARK  108  A    between atoms: _261  and  _262
REMARK  109  A    between atoms: _261  and  _264
REMARK  110  A    between atoms: _264  and  _265
REMARK  111  A    between atoms: _271  and  _273
REMARK  112  A    between atoms: _273  and  _274
REMARK  113  A    between atoms: _273  and  _276
REMARK  114  A    between atoms: _276  and  _277
REMARK  115  A    between atoms: _283  and  _285
REMARK  116  A    between atoms: _285  and  _286
REMARK  117  A    between atoms: _285  and  _288
REMARK  118  A    between atoms: _288  and  _289
REMARK  119  A    between atoms: _292  and  _294
REMARK  120  A    between atoms: _294  and  _295
REMARK  121  A    between atoms: _294  and  _297
REMARK  122  A    between atoms: _297  and  _298
REMARK  123  A    between atoms: _300  and  _302
REMARK  124  A    between atoms: _302  and  _303
REMARK  125  A    between atoms: _302  and  _305
REMARK  126  A    between atoms: _305  and  _306
REMARK  127  A    between atoms: _316  and  _318
REMARK  128  A    between atoms: _318  and  _319
REMARK  129  A    between atoms: _321  and  _323
REMARK  130  A    between atoms: _323  and  _324
REMARK  131  A    between atoms: _323  and  _326
REMARK  132  A    between atoms: _326  and  _327
REMARK  133  A    between atoms: _330  and  _332
REMARK  134  A    between atoms: _332  and  _333
REMARK  135  A    between atoms: _335  and  _337
REMARK  136  A    between atoms: _337  and  _338
REMARK  137  A    between atoms: _337  and  _340
REMARK  138  A    between atoms: _340  and  _341
REMARK  139  A    between atoms: _344  and  _346
REMARK  140  A    between atoms: _346  and  _347
REMARK  141  A    between atoms: _350  and  _352
REMARK  142  A    between atoms: _352  and  _353
REMARK  143  A    between atoms: _352  and  _355
REMARK  144  A    between atoms: _355  and  _356
REMARK  145  A    between atoms: _361  and  _362
REMARK  146  A    between atoms: _364  and  _366
REMARK  147  A    between atoms: _366  and  _367
REMARK  148  A    between atoms: _366  and  _369
REMARK  149  A    between atoms: _369  and  _370
REMARK  150  A    between atoms: _370  and  _371
REMARK  151  A    between atoms: _374  and  _376
REMARK  152  A    between atoms: _376  and  _377
REMARK  153  A    between atoms: _376  and  _379
REMARK  154  A    between atoms: _379  and  _380
REMARK  155  A    between atoms: _383  and  _385
REMARK  156  A    between atoms: _385  and  _386
REMARK  157  A    between atoms: _389  and  _391
REMARK  158  A    between atoms: _391  and  _392
REMARK  159  A    between atoms: _391  and  _394
REMARK  160  A    between atoms: _394  and  _395
REMARK  161  A    between atoms: _395  and  _396
REMARK  162  A    between atoms: _396  and  _397
REMARK  163  A    between atoms: _406  and  _408
REMARK  164  A    between atoms: _408  and  _409
REMARK  165  A    between atoms: _408  and  _411
REMARK  166  A    between atoms: _411  and  _412
REMARK  167  A    between atoms: _415  and  _417
REMARK  168  A    between atoms: _417  and  _418
REMARK  169  A    between atoms: _417  and  _420
REMARK  170  A    between atoms: _420  and  _421
REMARK  171  A    between atoms: _431  and  _433
REMARK  172  A    between atoms: _433  and  _434
REMARK  173  A    between atoms: _433  and  _436
REMARK  174  A    between atoms: _436  and  _437
REMARK  175  A    between atoms: _442  and  _443
REMARK  176  A    between atoms: _445  and  _447
REMARK  177  A    between atoms: _447  and  _448
REMARK  178  A    between atoms: _447  and  _450
REMARK  179  A    between atoms: _450  and  _451
REMARK  180  A    between atoms: _451  and  _452
REMARK  181  A    between atoms: _452  and  _453
REMARK  182  A    between atoms: _453  and  _454
REMARK  183  A    between atoms: _458  and  _460
REMARK  184  A    between atoms: _460  and  _461
REMARK  185  A    between atoms: _460  and  _463
REMARK  186  A    between atoms: _463  and  _464
REMARK  187  A    between atoms: _467  and  _469
REMARK  188  A    between atoms: _469  and  _470
REMARK  189  A    between atoms: _469  and  _472
REMARK  190  A    between atoms: _475  and  _477
REMARK  191  A    between atoms: _477  and  _478
REMARK  192  A    between atoms: _477  and  _480
REMARK  193  A    between atoms: _480  and  _481
REMARK  194  A    between atoms: _484  and  _486
REMARK  195  A    between atoms: _486  and  _487
REMARK  196  A    between atoms: _486  and  _489
REMARK  197  A    between atoms: _489  and  _490
REMARK  198  A    between atoms: _492  and  _494
REMARK  199  A    between atoms: _494  and  _495
REMARK  200  A    between atoms: _497  and  _499
REMARK  201  A    between atoms: _499  and  _500
REMARK  202  A    between atoms: _499  and  _502
REMARK  203  A    between atoms: _502  and  _503
REMARK  204  A    between atoms: _506  and  _508
REMARK  205  A    between atoms: _508  and  _509
REMARK  206  A    between atoms: _508  and  _511
REMARK  207  A    between atoms: _511  and  _512
REMARK  208  A    between atoms: _515  and  _517
REMARK  209  A    between atoms: _517  and  _518
REMARK  210  A    between atoms: _517  and  _520
REMARK  211  A    between atoms: _520  and  _521
REMARK  212  A    between atoms: _526  and  _528
REMARK  213  A    between atoms: _528  and  _529
REMARK  214  A    between atoms: _528  and  _531
REMARK  215  A    between atoms: _531  and  _532
REMARK  216  A    between atoms: _535  and  _537
REMARK  217  A    between atoms: _537  and  _538
REMARK  218  A    between atoms: _537  and  _540
REMARK  219  A    between atoms: _540  and  _541
REMARK  220  A    between atoms: _541  and  _542
REMARK  221  A    between atoms: _542  and  _543
REMARK  222  A    between atoms: _552  and  _554
REMARK  223  A    between atoms: _554  and  _555
REMARK  224  A    between atoms: _554  and  _557
REMARK  225  A    between atoms: _557  and  _558
REMARK  226  A    between atoms: _558  and  _559
REMARK  227  A    between atoms: _559  and  _560
REMARK  228  A    between atoms: _569  and  _571
REMARK  229  A    between atoms: _571  and  _572
REMARK  230  A    between atoms: _571  and  _574
REMARK  231  A    between atoms: _574  and  _575
REMARK  232  A    between atoms: _575  and  _576
REMARK  233  A    between atoms: _576  and  _577
REMARK  234  A    between atoms: _577  and  _578
REMARK  235  A    between atoms: _582  and  _584
REMARK  236  A    between atoms: _584  and  _585
REMARK  237  A    between atoms: _584  and  _587
REMARK  238  A    between atoms: _587  and  _588
REMARK  239  A    between atoms: _590  and  _592
REMARK  240  A    between atoms: _592  and  _593
REMARK  241  A    between atoms: _592  and  _595
REMARK  242  A    between atoms: _595  and  _596
REMARK  243  A    between atoms: _599  and  _601
REMARK  244  A    between atoms: _601  and  _602
REMARK  245  A    between atoms: _601  and  _604
REMARK  246  A    between atoms: _607  and  _609
REMARK  247  A    between atoms: _609  and  _610
REMARK  248  A    between atoms: _612  and  _614
REMARK  249  A    between atoms: _614  and  _615
REMARK                            x       y       z     vdW  Elec       q    Type
REMARK                         _______ _______ _______ _____ _____    ______ ____
ROOT
ATOM      1  O   HOH     1      27.281   7.220  -0.163  0.00  0.00    +0.000 OA
ENDROOT
TORSDOF 0
