REMARK  Name = ../refined-set-2016/1x8t/1x8t_pocket.pdb
REMARK  255 active torsions:
REMARK  status: ('A' for Active; 'I' for Inactive)
REMARK    1  A    between atoms: _1  and  _3
REMARK    2  A    between atoms: _3  and  _4
REMARK    3  A    between atoms: _3  and  _6
REMARK    4  A    between atoms: _6  and  _7
REMARK    5  A    between atoms: _9  and  _11
REMARK    6  A    between atoms: _11  and  _12
REMARK    7  A    between atoms: _11  and  _14
REMARK    8  A    between atoms: _14  and  _15
REMARK    9  A    between atoms: _15  and  _16
REMARK   10  A    between atoms: _16  and  _17
REMARK   11  A    between atoms: _17  and  _18
REMARK   12  A    between atoms: _22  and  _24
REMARK   13  A    between atoms: _24  and  _25
REMARK   14  A    between atoms: _24  and  _27
REMARK   15  A    between atoms: _27  and  _28
REMARK   16  A    between atoms: _30  and  _32
REMARK   17  A    between atoms: _32  and  _33
REMARK   18  A    between atoms: _32  and  _35
REMARK   19  A    between atoms: _38  and  _40
REMARK   20  A    between atoms: _40  and  _41
REMARK   21  A    between atoms: _40  and  _43
REMARK   22  A    between atoms: _43  and  _44
REMARK   23  A    between atoms: _46  and  _48
REMARK   24  A    between atoms: _48  and  _49
REMARK   25  A    between atoms: _48  and  _51
REMARK   26  A    between atoms: _51  and  _52
REMARK   27  A    between atoms: _57  and  _59
REMARK   28  A    between atoms: _59  and  _60
REMARK   29  A    between atoms: _59  and  _62
REMARK   30  A    between atoms: _62  and  _63
REMARK   31  A    between atoms: _63  and  _64
REMARK   32  A    between atoms: _64  and  _65
REMARK   33  A    between atoms: _74  and  _76
REMARK   34  A    between atoms: _76  and  _77
REMARK   35  A    between atoms: _76  and  _79
REMARK   36  A    between atoms: _79  and  _80
REMARK   37  A    between atoms: _83  and  _85
REMARK   38  A    between atoms: _85  and  _86
REMARK   39  A    between atoms: _85  and  _88
REMARK   40  A    between atoms: _88  and  _89
REMARK   41  A    between atoms: _94  and  _96
REMARK   42  A    between atoms: _96  and  _97
REMARK   43  A    between atoms: _100  and  _102
REMARK   44  A    between atoms: _102  and  _103
REMARK   45  A    between atoms: _105  and  _107
REMARK   46  A    between atoms: _107  and  _108
REMARK   47  A    between atoms: _107  and  _110
REMARK   48  A    between atoms: _110  and  _111
REMARK   49  A    between atoms: _114  and  _116
REMARK   50  A    between atoms: _116  and  _117
REMARK   51  A    between atoms: _120  and  _122
REMARK   52  A    between atoms: _122  and  _123
REMARK   53  A    between atoms: _122  and  _125
REMARK   54  A    between atoms: _125  and  _126
REMARK   55  A    between atoms: _126  and  _127
REMARK   56  A    between atoms: _129  and  _131
REMARK   57  A    between atoms: _131  and  _132
REMARK   58  A    between atoms: _131  and  _134
REMARK   59  A    between atoms: _134  and  _135
REMARK   60  A    between atoms: _135  and  _136
REMARK   61  A    between atoms: _136  and  _137
REMARK   62  A    between atoms: _147  and  _148
REMARK   63  A    between atoms: _153  and  _155
REMARK   64  A    between atoms: _155  and  _156
REMARK   65  A    between atoms: _155  and  _158
REMARK   66  A    between atoms: _158  and  _159
REMARK   67  A    between atoms: _159  and  _160
REMARK   68  A    between atoms: _160  and  _161
REMARK   69  A    between atoms: _171  and  _172
REMARK   70  A    between atoms: _177  and  _179
REMARK   71  A    between atoms: _179  and  _180
REMARK   72  A    between atoms: _182  and  _184
REMARK   73  A    between atoms: _184  and  _185
REMARK   74  A    between atoms: _184  and  _187
REMARK   75  A    between atoms: _187  and  _188
REMARK   76  A    between atoms: _190  and  _192
REMARK   77  A    between atoms: _192  and  _193
REMARK   78  A    between atoms: _192  and  _195
REMARK   79  A    between atoms: _198  and  _200
REMARK   80  A    between atoms: _200  and  _201
REMARK   81  A    between atoms: _200  and  _203
REMARK   82  A    between atoms: _203  and  _204
REMARK   83  A    between atoms: _206  and  _208
REMARK   84  A    between atoms: _208  and  _209
REMARK   85  A    between atoms: _208  and  _211
REMARK   86  A    between atoms: _211  and  _212
REMARK   87  A    between atoms: _214  and  _216
REMARK   88  A    between atoms: _216  and  _217
REMARK   89  A    between atoms: _216  and  _219
REMARK   90  A    between atoms: _219  and  _220
REMARK   91  A    between atoms: _220  and  _221
REMARK   92  A    between atoms: _226  and  _228
REMARK   93  A    between atoms: _228  and  _229
REMARK   94  A    between atoms: _228  and  _231
REMARK   95  A    between atoms: _231  and  _232
REMARK   96  A    between atoms: _238  and  _240
REMARK   97  A    between atoms: _240  and  _241
REMARK   98  A    between atoms: _240  and  _243
REMARK   99  A    between atoms: _243  and  _244
REMARK  100  A    between atoms: _247  and  _249
REMARK  101  A    between atoms: _249  and  _250
REMARK  102  A    between atoms: _249  and  _252
REMARK  103  A    between atoms: _252  and  _253
REMARK  104  A    between atoms: _256  and  _258
REMARK  105  A    between atoms: _258  and  _259
REMARK  106  A    between atoms: _262  and  _264
REMARK  107  A    between atoms: _264  and  _265
REMARK  108  A    between atoms: _264  and  _267
REMARK  109  A    between atoms: _267  and  _268
REMARK  110  A    between atoms: _268  and  _269
REMARK  111  A    between atoms: _271  and  _273
REMARK  112  A    between atoms: _273  and  _274
REMARK  113  A    between atoms: _273  and  _276
REMARK  114  A    between atoms: _276  and  _277
REMARK  115  A    between atoms: _280  and  _282
REMARK  116  A    between atoms: _282  and  _283
REMARK  117  A    between atoms: _282  and  _285
REMARK  118  A    between atoms: _288  and  _290
REMARK  119  A    between atoms: _290  and  _291
REMARK  120  A    between atoms: _290  and  _293
REMARK  121  A    between atoms: _293  and  _294
REMARK  122  A    between atoms: _296  and  _298
REMARK  123  A    between atoms: _298  and  _299
REMARK  124  A    between atoms: _298  and  _301
REMARK  125  A    between atoms: _301  and  _302
REMARK  126  A    between atoms: _302  and  _303
REMARK  127  A    between atoms: _303  and  _304
REMARK  128  A    between atoms: _304  and  _305
REMARK  129  A    between atoms: _310  and  _311
REMARK  130  A    between atoms: _316  and  _318
REMARK  131  A    between atoms: _318  and  _319
REMARK  132  A    between atoms: _318  and  _321
REMARK  133  A    between atoms: _321  and  _322
REMARK  134  A    between atoms: _327  and  _328
REMARK  135  A    between atoms: _330  and  _332
REMARK  136  A    between atoms: _332  and  _333
REMARK  137  A    between atoms: _332  and  _335
REMARK  138  A    between atoms: _335  and  _336
REMARK  139  A    between atoms: _339  and  _341
REMARK  140  A    between atoms: _341  and  _342
REMARK  141  A    between atoms: _341  and  _344
REMARK  142  A    between atoms: _344  and  _345
REMARK  143  A    between atoms: _348  and  _350
REMARK  144  A    between atoms: _350  and  _351
REMARK  145  A    between atoms: _350  and  _353
REMARK  146  A    between atoms: _353  and  _354
REMARK  147  A    between atoms: _357  and  _359
REMARK  148  A    between atoms: _359  and  _360
REMARK  149  A    between atoms: _359  and  _362
REMARK  150  A    between atoms: _362  and  _363
REMARK  151  A    between atoms: _366  and  _368
REMARK  152  A    between atoms: _368  and  _369
REMARK  153  A    between atoms: _368  and  _371
REMARK  154  A    between atoms: _371  and  _372
REMARK  155  A    between atoms: _374  and  _376
REMARK  156  A    between atoms: _376  and  _377
REMARK  157  A    between atoms: _376  and  _379
REMARK  158  A    between atoms: _379  and  _380
REMARK  159  A    between atoms: _385  and  _386
REMARK  160  A    between atoms: _388  and  _390
REMARK  161  A    between atoms: _390  and  _391
REMARK  162  A    between atoms: _390  and  _393
REMARK  163  A    between atoms: _393  and  _394
REMARK  164  A    between atoms: _397  and  _399
REMARK  165  A    between atoms: _399  and  _400
REMARK  166  A    between atoms: _399  and  _402
REMARK  167  A    between atoms: _402  and  _403
REMARK  168  A    between atoms: _408  and  _410
REMARK  169  A    between atoms: _410  and  _411
REMARK  170  A    between atoms: _410  and  _413
REMARK  171  A    between atoms: _413  and  _414
REMARK  172  A    between atoms: _418  and  _419
REMARK  173  A    between atoms: _424  and  _426
REMARK  174  A    between atoms: _426  and  _427
REMARK  175  A    between atoms: _426  and  _429
REMARK  176  A    between atoms: _429  and  _430
REMARK  177  A    between atoms: _433  and  _435
REMARK  178  A    between atoms: _435  and  _436
REMARK  179  A    between atoms: _439  and  _441
REMARK  180  A    between atoms: _441  and  _442
REMARK  181  A    between atoms: _441  and  _444
REMARK  182  A    between atoms: _444  and  _445
REMARK  183  A    between atoms: _445  and  _446
REMARK  184  A    between atoms: _448  and  _450
REMARK  185  A    between atoms: _450  and  _451
REMARK  186  A    between atoms: _450  and  _453
REMARK  187  A    between atoms: _453  and  _454
REMARK  188  A    between atoms: _459  and  _461
REMARK  189  A    between atoms: _461  and  _462
REMARK  190  A    between atoms: _461  and  _464
REMARK  191  A    between atoms: _464  and  _465
REMARK  192  A    between atoms: _475  and  _477
REMARK  193  A    between atoms: _477  and  _478
REMARK  194  A    between atoms: _477  and  _480
REMARK  195  A    between atoms: _483  and  _485
REMARK  196  A    between atoms: _485  and  _486
REMARK  197  A    between atoms: _485  and  _488
REMARK  198  A    between atoms: _488  and  _489
REMARK  199  A    between atoms: _489  and  _490
REMARK  200  A    between atoms: _490  and  _491
REMARK  201  A    between atoms: _491  and  _492
REMARK  202  A    between atoms: _496  and  _498
REMARK  203  A    between atoms: _498  and  _499
REMARK  204  A    between atoms: _498  and  _501
REMARK  205  A    between atoms: _501  and  _502
REMARK  206  A    between atoms: _502  and  _503
REMARK  207  A    between atoms: _506  and  _508
REMARK  208  A    between atoms: _508  and  _509
REMARK  209  A    between atoms: _508  and  _511
REMARK  210  A    between atoms: _511  and  _512
REMARK  211  A    between atoms: _515  and  _517
REMARK  212  A    between atoms: _517  and  _518
REMARK  213  A    between atoms: _517  and  _520
REMARK  214  A    between atoms: _520  and  _521
REMARK  215  A    between atoms: _521  and  _522
REMARK  216  A    between atoms: _522  and  _523
REMARK  217  A    between atoms: _532  and  _534
REMARK  218  A    between atoms: _534  and  _535
REMARK  219  A    between atoms: _534  and  _537
REMARK  220  A    between atoms: _537  and  _538
REMARK  221  A    between atoms: _543  and  _545
REMARK  222  A    between atoms: _545  and  _546
REMARK  223  A    between atoms: _545  and  _548
REMARK  224  A    between atoms: _548  and  _549
REMARK  225  A    between atoms: _552  and  _554
REMARK  226  A    between atoms: _554  and  _555
REMARK  227  A    between atoms: _554  and  _557
REMARK  228  A    between atoms: _557  and  _558
REMARK  229  A    between atoms: _563  and  _565
REMARK  230  A    between atoms: _565  and  _566
REMARK  231  A    between atoms: _565  and  _568
REMARK  232  A    between atoms: _568  and  _569
REMARK  233  A    between atoms: _569  and  _570
REMARK  234  A    between atoms: _570  and  _571
REMARK  235  A    between atoms: _580  and  _582
REMARK  236  A    between atoms: _582  and  _583
REMARK  237  A    between atoms: _582  and  _585
REMARK  238  A    between atoms: _585  and  _586
REMARK  239  A    between atoms: _586  and  _587
REMARK  240  A    between atoms: _589  and  _591
REMARK  241  A    between atoms: _591  and  _592
REMARK  242  A    between atoms: _591  and  _594
REMARK  243  A    between atoms: _594  and  _595
REMARK  244  A    between atoms: _595  and  _596
REMARK  245  A    between atoms: _598  and  _600
REMARK  246  A    between atoms: _600  and  _601
REMARK  247  A    between atoms: _600  and  _603
REMARK  248  A    between atoms: _603  and  _604
REMARK  249  A    between atoms: _604  and  _605
REMARK  250  A    between atoms: _605  and  _606
REMARK  251  A    between atoms: _606  and  _607
REMARK  252  A    between atoms: _611  and  _613
REMARK  253  A    between atoms: _613  and  _614
REMARK  254  A    between atoms: _613  and  _616
REMARK  255  A    between atoms: _616  and  _617
REMARK                            x       y       z     vdW  Elec       q    Type
REMARK                         _______ _______ _______ _____ _____    ______ ____
ROOT
ATOM      1  C   VAL A   4      59.268  21.210  26.958  0.00  0.00    +0.241 C 
ATOM      2  N   SER A   5      60.510  20.951  27.366  0.00  0.00    -0.295 N 
ATOM      3  H   SER A   5      60.661  20.504  28.293  0.00  0.00    +0.150 HD
ATOM      4  O   VAL A   4      59.017  21.705  25.860  0.00  0.00    -0.273 OA
ENDROOT
BRANCH   1   5
ATOM      5  CA  VAL A   4      58.139  20.848  27.919  0.00  0.00    +0.149 C 
BRANCH   5   7
ATOM      6  C   SER A   3      58.253  18.451  27.684  0.00  0.00    +0.243 C 
ATOM      7  N   VAL A   4      58.341  19.518  28.463  0.00  0.00    -0.297 N 
ATOM      8  H   VAL A   4      58.557  19.402  29.474  0.00  0.00    +0.150 HD
ATOM      9  O   SER A   3      57.977  18.517  26.486  0.00  0.00    -0.273 OA
BRANCH   6  10
ATOM     10  CA  SER A   3      58.502  17.111  28.351  0.00  0.00    +0.178 C 
BRANCH  10  12
ATOM     11  C   LYS A   2      60.907  17.410  28.611  0.00  0.00    +0.241 C 
ATOM     12  N   SER A   3      59.722  17.135  29.148  0.00  0.00    -0.295 N 
ATOM     13  H   SER A   3      59.664  16.931  30.166  0.00  0.00    +0.150 HD
ATOM     14  O   LYS A   2      61.061  17.665  27.419  0.00  0.00    -0.273 OA
BRANCH  11  15
ATOM     15  CA  LYS A   2      62.101  17.397  29.570  0.00  0.00    +0.149 C 
BRANCH  15  17
ATOM     16  C   SER A   1      61.485  19.350  30.858  0.00  0.00    +0.241 C 
ATOM     17  N   LYS A   2      61.719  18.045  30.819  0.00  0.00    -0.297 N 
ATOM     18  H   LYS A   2      61.629  17.479  31.687  0.00  0.00    +0.150 HD
ATOM     19  O   SER A   1      61.620  20.082  29.876  0.00  0.00    -0.274 OA
BRANCH  16  20
ATOM     20  CA  SER A   1      61.050  19.927  32.201  0.00  0.00    +0.174 C 
BRANCH  20  21
ATOM     21  N   SER A   1      61.919  21.046  32.538  0.00  0.00    -0.236 NA
ATOM     22  H   SER A   1      61.518  22.004  32.586  0.00  0.00    +0.142 HD
ENDBRANCH  20  21
BRANCH  20  23
ATOM     23  CB  SER A   1      59.600  20.396  32.076  0.00  0.00    +0.163 C 
BRANCH  23  24
ATOM     24  OG  SER A   1      58.825  19.407  31.411  0.00  0.00    -0.380 OA
ATOM     25  H   SER A   1      58.852  18.564  31.930  0.00  0.00    +0.211 HD
ENDBRANCH  23  24
ENDBRANCH  20  23
ENDBRANCH  16  20
ENDBRANCH  15  17
BRANCH  15  26
ATOM     26  CB  LYS A   2      62.547  15.953  29.830  0.00  0.00    +0.029 C 
BRANCH  26  27
ATOM     27  CG  LYS A   2      62.800  15.150  28.555  0.00  0.00    +0.000 C 
BRANCH  27  28
ATOM     28  CD  LYS A   2      61.683  14.143  28.310  0.00  0.00    -0.024 C 
BRANCH  28  29
ATOM     29  CE  LYS A   2      61.758  12.976  29.303  0.00  0.00    -0.086 C 
BRANCH  29  30
ATOM     30  NZ  LYS A   2      60.535  12.118  29.264  0.00  0.00    +0.380 N 
ATOM     31  HZ1 LYS A   2      60.634  11.344  29.952  0.00  0.00    -0.089 HD
ATOM     32  HZ2 LYS A   2      59.702  12.693  29.504  0.00  0.00    -0.089 HD
ATOM     33  HZ3 LYS A   2      60.421  11.722  28.309  0.00  0.00    -0.089 HD
ENDBRANCH  29  30
ENDBRANCH  28  29
ENDBRANCH  27  28
ENDBRANCH  26  27
ENDBRANCH  15  26
ENDBRANCH  11  15
ENDBRANCH  10  12
BRANCH  10  34
ATOM     34  CB  SER A   3      57.307  16.733  29.228  0.00  0.00    +0.166 C 
BRANCH  34  35
ATOM     35  OG  SER A   3      57.380  15.368  29.586  0.00  0.00    -0.380 OA
ATOM     36  H   SER A   3      57.371  14.812  28.767  0.00  0.00    +0.211 HD
ENDBRANCH  34  35
ENDBRANCH  10  34
ENDBRANCH   6  10
ENDBRANCH   5   7
BRANCH   5  37
ATOM     37  CB  VAL A   4      58.075  21.906  29.041  0.00  0.00    +0.027 C 
ATOM     38  CG2 VAL A   4      56.801  21.713  29.859  0.00  0.00    +0.002 C 
ATOM     39  CG1 VAL A   4      58.091  23.304  28.436  0.00  0.00    +0.002 C 
ENDBRANCH   5  37
ENDBRANCH   1   5
BRANCH   2  40
ATOM     40  CA  SER A   5      61.665  21.285  26.533  0.00  0.00    +0.178 C 
BRANCH  40  41
ATOM     41  C   SER A   5      61.610  20.747  25.117  0.00  0.00    +0.243 C 
ATOM     42  N   ASN A   6      61.384  19.448  24.958  0.00  0.00    -0.297 N 
ATOM     43  H   ASN A   6      61.221  18.837  25.783  0.00  0.00    +0.150 HD
ATOM     44  O   SER A   5      61.793  21.497  24.170  0.00  0.00    -0.273 OA
BRANCH  42  45
ATOM     45  CA  ASN A   6      61.368  18.893  23.617  0.00  0.00    +0.158 C 
BRANCH  45  46
ATOM     46  C   ASN A   6      60.149  19.321  22.802  0.00  0.00    +0.241 C 
ATOM     47  N   ARG A   7      59.030  19.583  23.465  0.00  0.00    -0.298 N 
ATOM     48  H   ARG A   7      58.982  19.449  24.495  0.00  0.00    +0.150 HD
ATOM     49  O   ASN A   6      60.223  19.428  21.579  0.00  0.00    -0.273 OA
BRANCH  47  50
ATOM     50  CA  ARG A   7      57.870  20.062  22.726  0.00  0.00    +0.137 C 
BRANCH  50  51
ATOM     51  C   ARG A   7      58.191  21.481  22.247  0.00  0.00    +0.227 C 
ATOM     52  O   ARG A   7      57.931  21.848  21.098  0.00  0.00    -0.286 OA
ENDBRANCH  50  51
BRANCH  50  53
ATOM     53  CB  ARG A   7      56.647  20.112  23.633  0.00  0.00    +0.031 C 
BRANCH  53  54
ATOM     54  CG  ARG A   7      56.014  18.762  23.936  0.00  0.00    +0.045 C 
BRANCH  54  55
ATOM     55  CD  ARG A   7      54.967  18.952  25.011  0.00  0.00    +0.174 C 
BRANCH  55  56
ATOM     56  NE  ARG A   7      54.101  17.791  25.211  0.00  0.00    -0.265 N 
ATOM     57  CZ  ARG A   7      54.491  16.627  25.719  0.00  0.00    +0.342 C 
ATOM     58  NH2 ARG A   7      55.757  16.431  26.079  0.00  0.00    -0.292 N 
ATOM     59 HH21 ARG A   7      56.049  15.515  26.475  0.00  0.00    +0.255 HD
ATOM     60 HH22 ARG A   7      56.454  17.194  25.964  0.00  0.00    +0.255 HD
ATOM     61  NH1 ARG A   7      53.605  15.650  25.861  0.00  0.00    -0.292 N 
ATOM     62 HH11 ARG A   7      53.899  14.735  26.258  0.00  0.00    +0.255 HD
ATOM     63 HH12 ARG A   7      52.616  15.799  25.576  0.00  0.00    +0.255 HD
ATOM     64  HE  ARG A   7      53.103  17.884  24.934  0.00  0.00    +0.259 HD
ENDBRANCH  55  56
ENDBRANCH  54  55
ENDBRANCH  53  54
ENDBRANCH  50  53
ENDBRANCH  47  50
ENDBRANCH  45  46
BRANCH  45  65
ATOM     65  CB  ASN A   6      61.542  17.365  23.662  0.00  0.00    +0.114 C 
BRANCH  65  66
ATOM     66  CG  ASN A   6      63.022  16.963  23.763  0.00  0.00    +0.222 C 
ATOM     67  ND2 ASN A   6      63.296  15.672  23.928  0.00  0.00    -0.329 N 
ATOM     68 HD21 ASN A   6      64.284  15.355  23.999  0.00  0.00    +0.145 HD
ATOM     69 HD22 ASN A   6      62.522  14.980  23.987  0.00  0.00    +0.145 HD
ATOM     70  OD1 ASN A   6      63.900  17.820  23.688  0.00  0.00    -0.275 OA
ENDBRANCH  65  66
ENDBRANCH  45  65
ENDBRANCH  42  45
ENDBRANCH  40  41
BRANCH  40  71
ATOM     71  CB  SER A   5      62.969  20.803  27.177  0.00  0.00    +0.166 C 
BRANCH  71  72
ATOM     72  OG  SER A   5      63.237  21.485  28.381  0.00  0.00    -0.380 OA
ATOM     73  H   SER A   5      62.497  21.329  29.019  0.00  0.00    +0.211 HD
ENDBRANCH  71  72
ENDBRANCH  40  71
ENDBRANCH   2  40
TORSDOF 32
REMARK  Name = ../refined-set-2016/1x8t/1x8t_pocket.pdb
REMARK  255 active torsions:
REMARK  status: ('A' for Active; 'I' for Inactive)
REMARK    1  A    between atoms: _1  and  _3
REMARK    2  A    between atoms: _3  and  _4
REMARK    3  A    between atoms: _3  and  _6
REMARK    4  A    between atoms: _6  and  _7
REMARK    5  A    between atoms: _9  and  _11
REMARK    6  A    between atoms: _11  and  _12
REMARK    7  A    between atoms: _11  and  _14
REMARK    8  A    between atoms: _14  and  _15
REMARK    9  A    between atoms: _15  and  _16
REMARK   10  A    between atoms: _16  and  _17
REMARK   11  A    between atoms: _17  and  _18
REMARK   12  A    between atoms: _22  and  _24
REMARK   13  A    between atoms: _24  and  _25
REMARK   14  A    between atoms: _24  and  _27
REMARK   15  A    between atoms: _27  and  _28
REMARK   16  A    between atoms: _30  and  _32
REMARK   17  A    between atoms: _32  and  _33
REMARK   18  A    between atoms: _32  and  _35
REMARK   19  A    between atoms: _38  and  _40
REMARK   20  A    between atoms: _40  and  _41
REMARK   21  A    between atoms: _40  and  _43
REMARK   22  A    between atoms: _43  and  _44
REMARK   23  A    between atoms: _46  and  _48
REMARK   24  A    between atoms: _48  and  _49
REMARK   25  A    between atoms: _48  and  _51
REMARK   26  A    between atoms: _51  and  _52
REMARK   27  A    between atoms: _57  and  _59
REMARK   28  A    between atoms: _59  and  _60
REMARK   29  A    between atoms: _59  and  _62
REMARK   30  A    between atoms: _62  and  _63
REMARK   31  A    between atoms: _63  and  _64
REMARK   32  A    between atoms: _64  and  _65
REMARK   33  A    between atoms: _74  and  _76
REMARK   34  A    between atoms: _76  and  _77
REMARK   35  A    between atoms: _76  and  _79
REMARK   36  A    between atoms: _79  and  _80
REMARK   37  A    between atoms: _83  and  _85
REMARK   38  A    between atoms: _85  and  _86
REMARK   39  A    between atoms: _85  and  _88
REMARK   40  A    between atoms: _88  and  _89
REMARK   41  A    between atoms: _94  and  _96
REMARK   42  A    between atoms: _96  and  _97
REMARK   43  A    between atoms: _100  and  _102
REMARK   44  A    between atoms: _102  and  _103
REMARK   45  A    between atoms: _105  and  _107
REMARK   46  A    between atoms: _107  and  _108
REMARK   47  A    between atoms: _107  and  _110
REMARK   48  A    between atoms: _110  and  _111
REMARK   49  A    between atoms: _114  and  _116
REMARK   50  A    between atoms: _116  and  _117
REMARK   51  A    between atoms: _120  and  _122
REMARK   52  A    between atoms: _122  and  _123
REMARK   53  A    between atoms: _122  and  _125
REMARK   54  A    between atoms: _125  and  _126
REMARK   55  A    between atoms: _126  and  _127
REMARK   56  A    between atoms: _129  and  _131
REMARK   57  A    between atoms: _131  and  _132
REMARK   58  A    between atoms: _131  and  _134
REMARK   59  A    between atoms: _134  and  _135
REMARK   60  A    between atoms: _135  and  _136
REMARK   61  A    between atoms: _136  and  _137
REMARK   62  A    between atoms: _147  and  _148
REMARK   63  A    between atoms: _153  and  _155
REMARK   64  A    between atoms: _155  and  _156
REMARK   65  A    between atoms: _155  and  _158
REMARK   66  A    between atoms: _158  and  _159
REMARK   67  A    between atoms: _159  and  _160
REMARK   68  A    between atoms: _160  and  _161
REMARK   69  A    between atoms: _171  and  _172
REMARK   70  A    between atoms: _177  and  _179
REMARK   71  A    between atoms: _179  and  _180
REMARK   72  A    between atoms: _182  and  _184
REMARK   73  A    between atoms: _184  and  _185
REMARK   74  A    between atoms: _184  and  _187
REMARK   75  A    between atoms: _187  and  _188
REMARK   76  A    between atoms: _190  and  _192
REMARK   77  A    between atoms: _192  and  _193
REMARK   78  A    between atoms: _192  and  _195
REMARK   79  A    between atoms: _198  and  _200
REMARK   80  A    between atoms: _200  and  _201
REMARK   81  A    between atoms: _200  and  _203
REMARK   82  A    between atoms: _203  and  _204
REMARK   83  A    between atoms: _206  and  _208
REMARK   84  A    between atoms: _208  and  _209
REMARK   85  A    between atoms: _208  and  _211
REMARK   86  A    between atoms: _211  and  _212
REMARK   87  A    between atoms: _214  and  _216
REMARK   88  A    between atoms: _216  and  _217
REMARK   89  A    between atoms: _216  and  _219
REMARK   90  A    between atoms: _219  and  _220
REMARK   91  A    between atoms: _220  and  _221
REMARK   92  A    between atoms: _226  and  _228
REMARK   93  A    between atoms: _228  and  _229
REMARK   94  A    between atoms: _228  and  _231
REMARK   95  A    between atoms: _231  and  _232
REMARK   96  A    between atoms: _238  and  _240
REMARK   97  A    between atoms: _240  and  _241
REMARK   98  A    between atoms: _240  and  _243
REMARK   99  A    between atoms: _243  and  _244
REMARK  100  A    between atoms: _247  and  _249
REMARK  101  A    between atoms: _249  and  _250
REMARK  102  A    between atoms: _249  and  _252
REMARK  103  A    between atoms: _252  and  _253
REMARK  104  A    between atoms: _256  and  _258
REMARK  105  A    between atoms: _258  and  _259
REMARK  106  A    between atoms: _262  and  _264
REMARK  107  A    between atoms: _264  and  _265
REMARK  108  A    between atoms: _264  and  _267
REMARK  109  A    between atoms: _267  and  _268
REMARK  110  A    between atoms: _268  and  _269
REMARK  111  A    between atoms: _271  and  _273
REMARK  112  A    between atoms: _273  and  _274
REMARK  113  A    between atoms: _273  and  _276
REMARK  114  A    between atoms: _276  and  _277
REMARK  115  A    between atoms: _280  and  _282
REMARK  116  A    between atoms: _282  and  _283
REMARK  117  A    between atoms: _282  and  _285
REMARK  118  A    between atoms: _288  and  _290
REMARK  119  A    between atoms: _290  and  _291
REMARK  120  A    between atoms: _290  and  _293
REMARK  121  A    between atoms: _293  and  _294
REMARK  122  A    between atoms: _296  and  _298
REMARK  123  A    between atoms: _298  and  _299
REMARK  124  A    between atoms: _298  and  _301
REMARK  125  A    between atoms: _301  and  _302
REMARK  126  A    between atoms: _302  and  _303
REMARK  127  A    between atoms: _303  and  _304
REMARK  128  A    between atoms: _304  and  _305
REMARK  129  A    between atoms: _310  and  _311
REMARK  130  A    between atoms: _316  and  _318
REMARK  131  A    between atoms: _318  and  _319
REMARK  132  A    between atoms: _318  and  _321
REMARK  133  A    between atoms: _321  and  _322
REMARK  134  A    between atoms: _327  and  _328
REMARK  135  A    between atoms: _330  and  _332
REMARK  136  A    between atoms: _332  and  _333
REMARK  137  A    between atoms: _332  and  _335
REMARK  138  A    between atoms: _335  and  _336
REMARK  139  A    between atoms: _339  and  _341
REMARK  140  A    between atoms: _341  and  _342
REMARK  141  A    between atoms: _341  and  _344
REMARK  142  A    between atoms: _344  and  _345
REMARK  143  A    between atoms: _348  and  _350
REMARK  144  A    between atoms: _350  and  _351
REMARK  145  A    between atoms: _350  and  _353
REMARK  146  A    between atoms: _353  and  _354
REMARK  147  A    between atoms: _357  and  _359
REMARK  148  A    between atoms: _359  and  _360
REMARK  149  A    between atoms: _359  and  _362
REMARK  150  A    between atoms: _362  and  _363
REMARK  151  A    between atoms: _366  and  _368
REMARK  152  A    between atoms: _368  and  _369
REMARK  153  A    between atoms: _368  and  _371
REMARK  154  A    between atoms: _371  and  _372
REMARK  155  A    between atoms: _374  and  _376
REMARK  156  A    between atoms: _376  and  _377
REMARK  157  A    between atoms: _376  and  _379
REMARK  158  A    between atoms: _379  and  _380
REMARK  159  A    between atoms: _385  and  _386
REMARK  160  A    between atoms: _388  and  _390
REMARK  161  A    between atoms: _390  and  _391
REMARK  162  A    between atoms: _390  and  _393
REMARK  163  A    between atoms: _393  and  _394
REMARK  164  A    between atoms: _397  and  _399
REMARK  165  A    between atoms: _399  and  _400
REMARK  166  A    between atoms: _399  and  _402
REMARK  167  A    between atoms: _402  and  _403
REMARK  168  A    between atoms: _408  and  _410
REMARK  169  A    between atoms: _410  and  _411
REMARK  170  A    between atoms: _410  and  _413
REMARK  171  A    between atoms: _413  and  _414
REMARK  172  A    between atoms: _418  and  _419
REMARK  173  A    between atoms: _424  and  _426
REMARK  174  A    between atoms: _426  and  _427
REMARK  175  A    between atoms: _426  and  _429
REMARK  176  A    between atoms: _429  and  _430
REMARK  177  A    between atoms: _433  and  _435
REMARK  178  A    between atoms: _435  and  _436
REMARK  179  A    between atoms: _439  and  _441
REMARK  180  A    between atoms: _441  and  _442
REMARK  181  A    between atoms: _441  and  _444
REMARK  182  A    between atoms: _444  and  _445
REMARK  183  A    between atoms: _445  and  _446
REMARK  184  A    between atoms: _448  and  _450
REMARK  185  A    between atoms: _450  and  _451
REMARK  186  A    between atoms: _450  and  _453
REMARK  187  A    between atoms: _453  and  _454
REMARK  188  A    between atoms: _459  and  _461
REMARK  189  A    between atoms: _461  and  _462
REMARK  190  A    between atoms: _461  and  _464
REMARK  191  A    between atoms: _464  and  _465
REMARK  192  A    between atoms: _475  and  _477
REMARK  193  A    between atoms: _477  and  _478
REMARK  194  A    between atoms: _477  and  _480
REMARK  195  A    between atoms: _483  and  _485
REMARK  196  A    between atoms: _485  and  _486
REMARK  197  A    between atoms: _485  and  _488
REMARK  198  A    between atoms: _488  and  _489
REMARK  199  A    between atoms: _489  and  _490
REMARK  200  A    between atoms: _490  and  _491
REMARK  201  A    between atoms: _491  and  _492
REMARK  202  A    between atoms: _496  and  _498
REMARK  203  A    between atoms: _498  and  _499
REMARK  204  A    between atoms: _498  and  _501
REMARK  205  A    between atoms: _501  and  _502
REMARK  206  A    between atoms: _502  and  _503
REMARK  207  A    between atoms: _506  and  _508
REMARK  208  A    between atoms: _508  and  _509
REMARK  209  A    between atoms: _508  and  _511
REMARK  210  A    between atoms: _511  and  _512
REMARK  211  A    between atoms: _515  and  _517
REMARK  212  A    between atoms: _517  and  _518
REMARK  213  A    between atoms: _517  and  _520
REMARK  214  A    between atoms: _520  and  _521
REMARK  215  A    between atoms: _521  and  _522
REMARK  216  A    between atoms: _522  and  _523
REMARK  217  A    between atoms: _532  and  _534
REMARK  218  A    between atoms: _534  and  _535
REMARK  219  A    between atoms: _534  and  _537
REMARK  220  A    between atoms: _537  and  _538
REMARK  221  A    between atoms: _543  and  _545
REMARK  222  A    between atoms: _545  and  _546
REMARK  223  A    between atoms: _545  and  _548
REMARK  224  A    between atoms: _548  and  _549
REMARK  225  A    between atoms: _552  and  _554
REMARK  226  A    between atoms: _554  and  _555
REMARK  227  A    between atoms: _554  and  _557
REMARK  228  A    between atoms: _557  and  _558
REMARK  229  A    between atoms: _563  and  _565
REMARK  230  A    between atoms: _565  and  _566
REMARK  231  A    between atoms: _565  and  _568
REMARK  232  A    between atoms: _568  and  _569
REMARK  233  A    between atoms: _569  and  _570
REMARK  234  A    between atoms: _570  and  _571
REMARK  235  A    between atoms: _580  and  _582
REMARK  236  A    between atoms: _582  and  _583
REMARK  237  A    between atoms: _582  and  _585
REMARK  238  A    between atoms: _585  and  _586
REMARK  239  A    between atoms: _586  and  _587
REMARK  240  A    between atoms: _589  and  _591
REMARK  241  A    between atoms: _591  and  _592
REMARK  242  A    between atoms: _591  and  _594
REMARK  243  A    between atoms: _594  and  _595
REMARK  244  A    between atoms: _595  and  _596
REMARK  245  A    between atoms: _598  and  _600
REMARK  246  A    between atoms: _600  and  _601
REMARK  247  A    between atoms: _600  and  _603
REMARK  248  A    between atoms: _603  and  _604
REMARK  249  A    between atoms: _604  and  _605
REMARK  250  A    between atoms: _605  and  _606
REMARK  251  A    between atoms: _606  and  _607
REMARK  252  A    between atoms: _611  and  _613
REMARK  253  A    between atoms: _613  and  _614
REMARK  254  A    between atoms: _613  and  _616
REMARK  255  A    between atoms: _616  and  _617
REMARK                            x       y       z     vdW  Elec       q    Type
REMARK                         _______ _______ _______ _____ _____    ______ ____
ROOT
ATOM      1  CA  ASP A   1      66.896  13.690  25.764  0.00  0.00    +0.144 C 
ENDROOT
BRANCH   1   2
ATOM      2  N   ASP A   1      68.116  13.609  26.560  0.00  0.00    -0.239 NA
ATOM      3  H   ASP A   1      68.056  13.489  27.591  0.00  0.00    +0.142 HD
ENDBRANCH   1   2
BRANCH   1   4
ATOM      4  C   ASP A   1      66.833  14.994  24.972  0.00  0.00    +0.225 C 
ATOM      5  O   ASP A   1      66.450  14.999  23.798  0.00  0.00    -0.287 OA
ENDBRANCH   1   4
BRANCH   1   6
ATOM      6  CB  ASP A   1      65.651  13.549  26.650  0.00  0.00    +0.139 C 
BRANCH   6   7
ATOM      7  CG  ASP A   1      65.161  12.101  26.761  0.00  0.00    +0.367 C 
ATOM      8  OD2 ASP A   1      64.114  11.880  27.407  0.00  0.00    -0.246 OA
ATOM      9  OD1 ASP A   1      65.806  11.188  26.197  0.00  0.00    -0.246 OA
ENDBRANCH   6   7
ENDBRANCH   1   6
TORSDOF 4
REMARK  Name = ../refined-set-2016/1x8t/1x8t_pocket.pdb
REMARK  255 active torsions:
REMARK  status: ('A' for Active; 'I' for Inactive)
REMARK    1  A    between atoms: _1  and  _3
REMARK    2  A    between atoms: _3  and  _4
REMARK    3  A    between atoms: _3  and  _6
REMARK    4  A    between atoms: _6  and  _7
REMARK    5  A    between atoms: _9  and  _11
REMARK    6  A    between atoms: _11  and  _12
REMARK    7  A    between atoms: _11  and  _14
REMARK    8  A    between atoms: _14  and  _15
REMARK    9  A    between atoms: _15  and  _16
REMARK   10  A    between atoms: _16  and  _17
REMARK   11  A    between atoms: _17  and  _18
REMARK   12  A    between atoms: _22  and  _24
REMARK   13  A    between atoms: _24  and  _25
REMARK   14  A    between atoms: _24  and  _27
REMARK   15  A    between atoms: _27  and  _28
REMARK   16  A    between atoms: _30  and  _32
REMARK   17  A    between atoms: _32  and  _33
REMARK   18  A    between atoms: _32  and  _35
REMARK   19  A    between atoms: _38  and  _40
REMARK   20  A    between atoms: _40  and  _41
REMARK   21  A    between atoms: _40  and  _43
REMARK   22  A    between atoms: _43  and  _44
REMARK   23  A    between atoms: _46  and  _48
REMARK   24  A    between atoms: _48  and  _49
REMARK   25  A    between atoms: _48  and  _51
REMARK   26  A    between atoms: _51  and  _52
REMARK   27  A    between atoms: _57  and  _59
REMARK   28  A    between atoms: _59  and  _60
REMARK   29  A    between atoms: _59  and  _62
REMARK   30  A    between atoms: _62  and  _63
REMARK   31  A    between atoms: _63  and  _64
REMARK   32  A    between atoms: _64  and  _65
REMARK   33  A    between atoms: _74  and  _76
REMARK   34  A    between atoms: _76  and  _77
REMARK   35  A    between atoms: _76  and  _79
REMARK   36  A    between atoms: _79  and  _80
REMARK   37  A    between atoms: _83  and  _85
REMARK   38  A    between atoms: _85  and  _86
REMARK   39  A    between atoms: _85  and  _88
REMARK   40  A    between atoms: _88  and  _89
REMARK   41  A    between atoms: _94  and  _96
REMARK   42  A    between atoms: _96  and  _97
REMARK   43  A    between atoms: _100  and  _102
REMARK   44  A    between atoms: _102  and  _103
REMARK   45  A    between atoms: _105  and  _107
REMARK   46  A    between atoms: _107  and  _108
REMARK   47  A    between atoms: _107  and  _110
REMARK   48  A    between atoms: _110  and  _111
REMARK   49  A    between atoms: _114  and  _116
REMARK   50  A    between atoms: _116  and  _117
REMARK   51  A    between atoms: _120  and  _122
REMARK   52  A    between atoms: _122  and  _123
REMARK   53  A    between atoms: _122  and  _125
REMARK   54  A    between atoms: _125  and  _126
REMARK   55  A    between atoms: _126  and  _127
REMARK   56  A    between atoms: _129  and  _131
REMARK   57  A    between atoms: _131  and  _132
REMARK   58  A    between atoms: _131  and  _134
REMARK   59  A    between atoms: _134  and  _135
REMARK   60  A    between atoms: _135  and  _136
REMARK   61  A    between atoms: _136  and  _137
REMARK   62  A    between atoms: _147  and  _148
REMARK   63  A    between atoms: _153  and  _155
REMARK   64  A    between atoms: _155  and  _156
REMARK   65  A    between atoms: _155  and  _158
REMARK   66  A    between atoms: _158  and  _159
REMARK   67  A    between atoms: _159  and  _160
REMARK   68  A    between atoms: _160  and  _161
REMARK   69  A    between atoms: _171  and  _172
REMARK   70  A    between atoms: _177  and  _179
REMARK   71  A    between atoms: _179  and  _180
REMARK   72  A    between atoms: _182  and  _184
REMARK   73  A    between atoms: _184  and  _185
REMARK   74  A    between atoms: _184  and  _187
REMARK   75  A    between atoms: _187  and  _188
REMARK   76  A    between atoms: _190  and  _192
REMARK   77  A    between atoms: _192  and  _193
REMARK   78  A    between atoms: _192  and  _195
REMARK   79  A    between atoms: _198  and  _200
REMARK   80  A    between atoms: _200  and  _201
REMARK   81  A    between atoms: _200  and  _203
REMARK   82  A    between atoms: _203  and  _204
REMARK   83  A    between atoms: _206  and  _208
REMARK   84  A    between atoms: _208  and  _209
REMARK   85  A    between atoms: _208  and  _211
REMARK   86  A    between atoms: _211  and  _212
REMARK   87  A    between atoms: _214  and  _216
REMARK   88  A    between atoms: _216  and  _217
REMARK   89  A    between atoms: _216  and  _219
REMARK   90  A    between atoms: _219  and  _220
REMARK   91  A    between atoms: _220  and  _221
REMARK   92  A    between atoms: _226  and  _228
REMARK   93  A    between atoms: _228  and  _229
REMARK   94  A    between atoms: _228  and  _231
REMARK   95  A    between atoms: _231  and  _232
REMARK   96  A    between atoms: _238  and  _240
REMARK   97  A    between atoms: _240  and  _241
REMARK   98  A    between atoms: _240  and  _243
REMARK   99  A    between atoms: _243  and  _244
REMARK  100  A    between atoms: _247  and  _249
REMARK  101  A    between atoms: _249  and  _250
REMARK  102  A    between atoms: _249  and  _252
REMARK  103  A    between atoms: _252  and  _253
REMARK  104  A    between atoms: _256  and  _258
REMARK  105  A    between atoms: _258  and  _259
REMARK  106  A    between atoms: _262  and  _264
REMARK  107  A    between atoms: _264  and  _265
REMARK  108  A    between atoms: _264  and  _267
REMARK  109  A    between atoms: _267  and  _268
REMARK  110  A    between atoms: _268  and  _269
REMARK  111  A    between atoms: _271  and  _273
REMARK  112  A    between atoms: _273  and  _274
REMARK  113  A    between atoms: _273  and  _276
REMARK  114  A    between atoms: _276  and  _277
REMARK  115  A    between atoms: _280  and  _282
REMARK  116  A    between atoms: _282  and  _283
REMARK  117  A    between atoms: _282  and  _285
REMARK  118  A    between atoms: _288  and  _290
REMARK  119  A    between atoms: _290  and  _291
REMARK  120  A    between atoms: _290  and  _293
REMARK  121  A    between atoms: _293  and  _294
REMARK  122  A    between atoms: _296  and  _298
REMARK  123  A    between atoms: _298  and  _299
REMARK  124  A    between atoms: _298  and  _301
REMARK  125  A    between atoms: _301  and  _302
REMARK  126  A    between atoms: _302  and  _303
REMARK  127  A    between atoms: _303  and  _304
REMARK  128  A    between atoms: _304  and  _305
REMARK  129  A    between atoms: _310  and  _311
REMARK  130  A    between atoms: _316  and  _318
REMARK  131  A    between atoms: _318  and  _319
REMARK  132  A    between atoms: _318  and  _321
REMARK  133  A    between atoms: _321  and  _322
REMARK  134  A    between atoms: _327  and  _328
REMARK  135  A    between atoms: _330  and  _332
REMARK  136  A    between atoms: _332  and  _333
REMARK  137  A    between atoms: _332  and  _335
REMARK  138  A    between atoms: _335  and  _336
REMARK  139  A    between atoms: _339  and  _341
REMARK  140  A    between atoms: _341  and  _342
REMARK  141  A    between atoms: _341  and  _344
REMARK  142  A    between atoms: _344  and  _345
REMARK  143  A    between atoms: _348  and  _350
REMARK  144  A    between atoms: _350  and  _351
REMARK  145  A    between atoms: _350  and  _353
REMARK  146  A    between atoms: _353  and  _354
REMARK  147  A    between atoms: _357  and  _359
REMARK  148  A    between atoms: _359  and  _360
REMARK  149  A    between atoms: _359  and  _362
REMARK  150  A    between atoms: _362  and  _363
REMARK  151  A    between atoms: _366  and  _368
REMARK  152  A    between atoms: _368  and  _369
REMARK  153  A    between atoms: _368  and  _371
REMARK  154  A    between atoms: _371  and  _372
REMARK  155  A    between atoms: _374  and  _376
REMARK  156  A    between atoms: _376  and  _377
REMARK  157  A    between atoms: _376  and  _379
REMARK  158  A    between atoms: _379  and  _380
REMARK  159  A    between atoms: _385  and  _386
REMARK  160  A    between atoms: _388  and  _390
REMARK  161  A    between atoms: _390  and  _391
REMARK  162  A    between atoms: _390  and  _393
REMARK  163  A    between atoms: _393  and  _394
REMARK  164  A    between atoms: _397  and  _399
REMARK  165  A    between atoms: _399  and  _400
REMARK  166  A    between atoms: _399  and  _402
REMARK  167  A    between atoms: _402  and  _403
REMARK  168  A    between atoms: _408  and  _410
REMARK  169  A    between atoms: _410  and  _411
REMARK  170  A    between atoms: _410  and  _413
REMARK  171  A    between atoms: _413  and  _414
REMARK  172  A    between atoms: _418  and  _419
REMARK  173  A    between atoms: _424  and  _426
REMARK  174  A    between atoms: _426  and  _427
REMARK  175  A    between atoms: _426  and  _429
REMARK  176  A    between atoms: _429  and  _430
REMARK  177  A    between atoms: _433  and  _435
REMARK  178  A    between atoms: _435  and  _436
REMARK  179  A    between atoms: _439  and  _441
REMARK  180  A    between atoms: _441  and  _442
REMARK  181  A    between atoms: _441  and  _444
REMARK  182  A    between atoms: _444  and  _445
REMARK  183  A    between atoms: _445  and  _446
REMARK  184  A    between atoms: _448  and  _450
REMARK  185  A    between atoms: _450  and  _451
REMARK  186  A    between atoms: _450  and  _453
REMARK  187  A    between atoms: _453  and  _454
REMARK  188  A    between atoms: _459  and  _461
REMARK  189  A    between atoms: _461  and  _462
REMARK  190  A    between atoms: _461  and  _464
REMARK  191  A    between atoms: _464  and  _465
REMARK  192  A    between atoms: _475  and  _477
REMARK  193  A    between atoms: _477  and  _478
REMARK  194  A    between atoms: _477  and  _480
REMARK  195  A    between atoms: _483  and  _485
REMARK  196  A    between atoms: _485  and  _486
REMARK  197  A    between atoms: _485  and  _488
REMARK  198  A    between atoms: _488  and  _489
REMARK  199  A    between atoms: _489  and  _490
REMARK  200  A    between atoms: _490  and  _491
REMARK  201  A    between atoms: _491  and  _492
REMARK  202  A    between atoms: _496  and  _498
REMARK  203  A    between atoms: _498  and  _499
REMARK  204  A    between atoms: _498  and  _501
REMARK  205  A    between atoms: _501  and  _502
REMARK  206  A    between atoms: _502  and  _503
REMARK  207  A    between atoms: _506  and  _508
REMARK  208  A    between atoms: _508  and  _509
REMARK  209  A    between atoms: _508  and  _511
REMARK  210  A    between atoms: _511  and  _512
REMARK  211  A    between atoms: _515  and  _517
REMARK  212  A    between atoms: _517  and  _518
REMARK  213  A    between atoms: _517  and  _520
REMARK  214  A    between atoms: _520  and  _521
REMARK  215  A    between atoms: _521  and  _522
REMARK  216  A    between atoms: _522  and  _523
REMARK  217  A    between atoms: _532  and  _534
REMARK  218  A    between atoms: _534  and  _535
REMARK  219  A    between atoms: _534  and  _537
REMARK  220  A    between atoms: _537  and  _538
REMARK  221  A    between atoms: _543  and  _545
REMARK  222  A    between atoms: _545  and  _546
REMARK  223  A    between atoms: _545  and  _548
REMARK  224  A    between atoms: _548  and  _549
REMARK  225  A    between atoms: _552  and  _554
REMARK  226  A    between atoms: _554  and  _555
REMARK  227  A    between atoms: _554  and  _557
REMARK  228  A    between atoms: _557  and  _558
REMARK  229  A    between atoms: _563  and  _565
REMARK  230  A    between atoms: _565  and  _566
REMARK  231  A    between atoms: _565  and  _568
REMARK  232  A    between atoms: _568  and  _569
REMARK  233  A    between atoms: _569  and  _570
REMARK  234  A    between atoms: _570  and  _571
REMARK  235  A    between atoms: _580  and  _582
REMARK  236  A    between atoms: _582  and  _583
REMARK  237  A    between atoms: _582  and  _585
REMARK  238  A    between atoms: _585  and  _586
REMARK  239  A    between atoms: _586  and  _587
REMARK  240  A    between atoms: _589  and  _591
REMARK  241  A    between atoms: _591  and  _592
REMARK  242  A    between atoms: _591  and  _594
REMARK  243  A    between atoms: _594  and  _595
REMARK  244  A    between atoms: _595  and  _596
REMARK  245  A    between atoms: _598  and  _600
REMARK  246  A    between atoms: _600  and  _601
REMARK  247  A    between atoms: _600  and  _603
REMARK  248  A    between atoms: _603  and  _604
REMARK  249  A    between atoms: _604  and  _605
REMARK  250  A    between atoms: _605  and  _606
REMARK  251  A    between atoms: _606  and  _607
REMARK  252  A    between atoms: _611  and  _613
REMARK  253  A    between atoms: _613  and  _614
REMARK  254  A    between atoms: _613  and  _616
REMARK  255  A    between atoms: _616  and  _617
REMARK                            x       y       z     vdW  Elec       q    Type
REMARK                         _______ _______ _______ _____ _____    ______ ____
ROOT
ATOM      1  CA  ALA A   5      61.942  13.346  19.737  0.00  0.00    +0.149 C 
ATOM      2  CB  ALA A   5      63.473  13.355  19.697  0.00  0.00    +0.031 C 
ENDROOT
BRANCH   1   3
ATOM      3  C   ALA A   5      61.392  12.399  18.666  0.00  0.00    +0.241 C 
ATOM      4  N   MET A   6      61.615  11.109  18.878  0.00  0.00    -0.297 N 
ATOM      5  H   MET A   6      62.125  10.819  19.737  0.00  0.00    +0.150 HD
ATOM      6  O   ALA A   5      60.753  12.815  17.699  0.00  0.00    -0.273 OA
BRANCH   4   7
ATOM      7  CA  MET A   6      61.166  10.087  17.944  0.00  0.00    +0.149 C 
BRANCH   7   8
ATOM      8  C   MET A   6      59.676  10.180  17.614  0.00  0.00    +0.241 C 
ATOM      9  N   ARG A   7      58.824  10.141  18.631  0.00  0.00    -0.297 N 
ATOM     10  H   ARG A   7      59.176  10.072  19.607  0.00  0.00    +0.150 HD
ATOM     11  O   MET A   6      59.299  10.284  16.447  0.00  0.00    -0.273 OA
BRANCH   9  12
ATOM     12  CA  ARG A   7      57.395  10.196  18.370  0.00  0.00    +0.149 C 
BRANCH  12  13
ATOM     13  C   ARG A   7      56.948  11.477  17.660  0.00  0.00    +0.244 C 
ATOM     14  N   PRO A   8      57.277  12.655  18.217  0.00  0.00    -0.273 N 
ATOM     15  CD  PRO A   8      57.872  12.917  19.536  0.00  0.00    +0.094 C 
ATOM     16  CG  PRO A   8      57.294  14.265  19.874  0.00  0.00    +0.024 C 
ATOM     17  CB  PRO A   8      57.368  14.974  18.554  0.00  0.00    +0.030 C 
ATOM     18  CA  PRO A   8      56.866  13.912  17.579  0.00  0.00    +0.140 C 
ATOM     19  O   ARG A   7      56.332  11.413  16.597  0.00  0.00    -0.273 OA
BRANCH  18  20
ATOM     20  C   PRO A   8      57.427  14.101  16.173  0.00  0.00    +0.227 C 
ATOM     21  O   PRO A   8      56.703  14.524  15.270  0.00  0.00    -0.286 OA
ENDBRANCH  18  20
ENDBRANCH  12  13
BRANCH  12  22
ATOM     22  CB  ARG A   7      56.596   9.990  19.670  0.00  0.00    +0.033 C 
BRANCH  22  23
ATOM     23  CG  ARG A   7      56.352   8.513  20.057  0.00  0.00    +0.045 C 
BRANCH  23  24
ATOM     24  CD  ARG A   7      57.628   7.792  20.495  0.00  0.00    +0.174 C 
BRANCH  24  25
ATOM     25  NE  ARG A   7      57.390   6.408  20.927  0.00  0.00    -0.265 N 
ATOM     26  CZ  ARG A   7      56.923   6.046  22.119  0.00  0.00    +0.342 C 
ATOM     27  NH2 ARG A   7      56.637   6.959  23.032  0.00  0.00    -0.292 N 
ATOM     28 HH21 ARG A   7      56.272   6.668  23.962  0.00  0.00    +0.255 HD
ATOM     29 HH22 ARG A   7      56.777   7.968  22.820  0.00  0.00    +0.255 HD
ATOM     30  NH1 ARG A   7      56.747   4.759  22.408  0.00  0.00    -0.292 N 
ATOM     31 HH11 ARG A   7      56.382   4.481  23.341  0.00  0.00    +0.255 HD
ATOM     32 HH12 ARG A   7      56.975   4.031  21.701  0.00  0.00    +0.255 HD
ATOM     33  HE  ARG A   7      57.604   5.651  20.247  0.00  0.00    +0.259 HD
ENDBRANCH  24  25
ENDBRANCH  23  24
ENDBRANCH  22  23
ENDBRANCH  12  22
ENDBRANCH   9  12
ENDBRANCH   7   8
BRANCH   7  34
ATOM     34  CB  MET A   6      61.484   8.695  18.506  0.00  0.00    +0.041 C 
BRANCH  34  35
ATOM     35  CG  MET A   6      60.990   7.526  17.657  0.00  0.00    +0.060 C 
BRANCH  35  36
ATOM     36  SD  MET A   6      61.731   7.422  16.009  0.00  0.00    -0.139 S 
ATOM     37  CE  MET A   6      63.355   6.866  16.430  0.00  0.00    +0.069 C 
ENDBRANCH  35  36
ENDBRANCH  34  35
ENDBRANCH   7  34
ENDBRANCH   4   7
ENDBRANCH   1   3
BRANCH   1  40
ATOM     38  C   THR A   4      60.482  13.388  21.686  0.00  0.00    +0.243 C 
ATOM     39  O   THR A   4      60.032  14.495  21.380  0.00  0.00    -0.273 OA
ATOM     40  N   ALA A   5      61.449  12.783  20.991  0.00  0.00    -0.297 N 
ATOM     41  H   ALA A   5      61.858  11.896  21.349  0.00  0.00    +0.150 HD
BRANCH  38  42
ATOM     42  CA  THR A   4      59.971  12.651  22.930  0.00  0.00    +0.176 C 
BRANCH  42  44
ATOM     43  C   GLY A   3      60.494  10.375  22.368  0.00  0.00    +0.243 C 
ATOM     44  N   THR A   4      60.726  11.428  23.137  0.00  0.00    -0.295 N 
ATOM     45  H   THR A   4      61.446  11.379  23.886  0.00  0.00    +0.150 HD
ATOM     46  O   GLY A   3      59.617  10.373  21.501  0.00  0.00    -0.273 OA
BRANCH  43  47
ATOM     47  CA  GLY A   3      61.344   9.149  22.631  0.00  0.00    +0.176 C 
BRANCH  47  49
ATOM     48  C   ALA A   2      63.509  10.185  22.348  0.00  0.00    +0.241 C 
ATOM     49  N   GLY A   3      62.654   9.534  23.127  0.00  0.00    -0.295 N 
ATOM     50  H   GLY A   3      62.925   9.297  24.103  0.00  0.00    +0.150 HD
ATOM     51  O   ALA A   2      63.255  10.490  21.186  0.00  0.00    -0.273 OA
BRANCH  48  52
ATOM     52  CA  ALA A   2      64.851  10.555  22.970  0.00  0.00    +0.149 C 
ATOM     53  CB  ALA A   2      65.231  11.969  22.556  0.00  0.00    +0.031 C 
BRANCH  52  56
ATOM     54  C   ASN A   1      66.187   8.549  23.335  0.00  0.00    +0.239 C 
ATOM     55  O   ASN A   1      65.537   8.236  24.330  0.00  0.00    -0.274 OA
ATOM     56  N   ALA A   2      65.919   9.632  22.604  0.00  0.00    -0.297 N 
ATOM     57  H   ALA A   2      66.485   9.823  21.753  0.00  0.00    +0.150 HD
BRANCH  54  58
ATOM     58  CA  ASN A   1      67.350   7.677  22.868  0.00  0.00    +0.154 C 
BRANCH  58  59
ATOM     59  N   ASN A   1      68.267   8.461  22.051  0.00  0.00    -0.238 NA
ATOM     60  H   ASN A   1      68.482   9.442  22.322  0.00  0.00    +0.142 HD
ENDBRANCH  58  59
BRANCH  58  61
ATOM     61  CB  ASN A   1      68.085   7.089  24.081  0.00  0.00    +0.111 C 
BRANCH  61  62
ATOM     62  CG  ASN A   1      67.194   6.196  24.920  0.00  0.00    +0.221 C 
ATOM     63  ND2 ASN A   1      67.239   6.375  26.241  0.00  0.00    -0.329 N 
ATOM     64 HD21 ASN A   1      66.650   5.788  26.866  0.00  0.00    +0.145 HD
ATOM     65 HD22 ASN A   1      67.863   7.102  26.646  0.00  0.00    +0.145 HD
ATOM     66  OD1 ASN A   1      66.475   5.352  24.388  0.00  0.00    -0.275 OA
ENDBRANCH  61  62
ENDBRANCH  58  61
ENDBRANCH  54  58
ENDBRANCH  52  56
ENDBRANCH  48  52
ENDBRANCH  47  49
ENDBRANCH  43  47
ENDBRANCH  42  44
BRANCH  42  67
ATOM     67  CB  THR A   4      60.029  13.570  24.169  0.00  0.00    +0.137 C 
ATOM     68  CG2 THR A   4      59.133  13.014  25.285  0.00  0.00    +0.034 C 
BRANCH  67  69
ATOM     69  OG1 THR A   4      61.381  13.680  24.623  0.00  0.00    -0.382 OA
ATOM     70  HG1 THR A   4      61.721  12.782  24.863  0.00  0.00    +0.210 HD
ENDBRANCH  67  69
ENDBRANCH  42  67
ENDBRANCH  38  42
ENDBRANCH   1  40
TORSDOF 26
REMARK  Name = ../refined-set-2016/1x8t/1x8t_pocket.pdb
REMARK  255 active torsions:
REMARK  status: ('A' for Active; 'I' for Inactive)
REMARK    1  A    between atoms: _1  and  _3
REMARK    2  A    between atoms: _3  and  _4
REMARK    3  A    between atoms: _3  and  _6
REMARK    4  A    between atoms: _6  and  _7
REMARK    5  A    between atoms: _9  and  _11
REMARK    6  A    between atoms: _11  and  _12
REMARK    7  A    between atoms: _11  and  _14
REMARK    8  A    between atoms: _14  and  _15
REMARK    9  A    between atoms: _15  and  _16
REMARK   10  A    between atoms: _16  and  _17
REMARK   11  A    between atoms: _17  and  _18
REMARK   12  A    between atoms: _22  and  _24
REMARK   13  A    between atoms: _24  and  _25
REMARK   14  A    between atoms: _24  and  _27
REMARK   15  A    between atoms: _27  and  _28
REMARK   16  A    between atoms: _30  and  _32
REMARK   17  A    between atoms: _32  and  _33
REMARK   18  A    between atoms: _32  and  _35
REMARK   19  A    between atoms: _38  and  _40
REMARK   20  A    between atoms: _40  and  _41
REMARK   21  A    between atoms: _40  and  _43
REMARK   22  A    between atoms: _43  and  _44
REMARK   23  A    between atoms: _46  and  _48
REMARK   24  A    between atoms: _48  and  _49
REMARK   25  A    between atoms: _48  and  _51
REMARK   26  A    between atoms: _51  and  _52
REMARK   27  A    between atoms: _57  and  _59
REMARK   28  A    between atoms: _59  and  _60
REMARK   29  A    between atoms: _59  and  _62
REMARK   30  A    between atoms: _62  and  _63
REMARK   31  A    between atoms: _63  and  _64
REMARK   32  A    between atoms: _64  and  _65
REMARK   33  A    between atoms: _74  and  _76
REMARK   34  A    between atoms: _76  and  _77
REMARK   35  A    between atoms: _76  and  _79
REMARK   36  A    between atoms: _79  and  _80
REMARK   37  A    between atoms: _83  and  _85
REMARK   38  A    between atoms: _85  and  _86
REMARK   39  A    between atoms: _85  and  _88
REMARK   40  A    between atoms: _88  and  _89
REMARK   41  A    between atoms: _94  and  _96
REMARK   42  A    between atoms: _96  and  _97
REMARK   43  A    between atoms: _100  and  _102
REMARK   44  A    between atoms: _102  and  _103
REMARK   45  A    between atoms: _105  and  _107
REMARK   46  A    between atoms: _107  and  _108
REMARK   47  A    between atoms: _107  and  _110
REMARK   48  A    between atoms: _110  and  _111
REMARK   49  A    between atoms: _114  and  _116
REMARK   50  A    between atoms: _116  and  _117
REMARK   51  A    between atoms: _120  and  _122
REMARK   52  A    between atoms: _122  and  _123
REMARK   53  A    between atoms: _122  and  _125
REMARK   54  A    between atoms: _125  and  _126
REMARK   55  A    between atoms: _126  and  _127
REMARK   56  A    between atoms: _129  and  _131
REMARK   57  A    between atoms: _131  and  _132
REMARK   58  A    between atoms: _131  and  _134
REMARK   59  A    between atoms: _134  and  _135
REMARK   60  A    between atoms: _135  and  _136
REMARK   61  A    between atoms: _136  and  _137
REMARK   62  A    between atoms: _147  and  _148
REMARK   63  A    between atoms: _153  and  _155
REMARK   64  A    between atoms: _155  and  _156
REMARK   65  A    between atoms: _155  and  _158
REMARK   66  A    between atoms: _158  and  _159
REMARK   67  A    between atoms: _159  and  _160
REMARK   68  A    between atoms: _160  and  _161
REMARK   69  A    between atoms: _171  and  _172
REMARK   70  A    between atoms: _177  and  _179
REMARK   71  A    between atoms: _179  and  _180
REMARK   72  A    between atoms: _182  and  _184
REMARK   73  A    between atoms: _184  and  _185
REMARK   74  A    between atoms: _184  and  _187
REMARK   75  A    between atoms: _187  and  _188
REMARK   76  A    between atoms: _190  and  _192
REMARK   77  A    between atoms: _192  and  _193
REMARK   78  A    between atoms: _192  and  _195
REMARK   79  A    between atoms: _198  and  _200
REMARK   80  A    between atoms: _200  and  _201
REMARK   81  A    between atoms: _200  and  _203
REMARK   82  A    between atoms: _203  and  _204
REMARK   83  A    between atoms: _206  and  _208
REMARK   84  A    between atoms: _208  and  _209
REMARK   85  A    between atoms: _208  and  _211
REMARK   86  A    between atoms: _211  and  _212
REMARK   87  A    between atoms: _214  and  _216
REMARK   88  A    between atoms: _216  and  _217
REMARK   89  A    between atoms: _216  and  _219
REMARK   90  A    between atoms: _219  and  _220
REMARK   91  A    between atoms: _220  and  _221
REMARK   92  A    between atoms: _226  and  _228
REMARK   93  A    between atoms: _228  and  _229
REMARK   94  A    between atoms: _228  and  _231
REMARK   95  A    between atoms: _231  and  _232
REMARK   96  A    between atoms: _238  and  _240
REMARK   97  A    between atoms: _240  and  _241
REMARK   98  A    between atoms: _240  and  _243
REMARK   99  A    between atoms: _243  and  _244
REMARK  100  A    between atoms: _247  and  _249
REMARK  101  A    between atoms: _249  and  _250
REMARK  102  A    between atoms: _249  and  _252
REMARK  103  A    between atoms: _252  and  _253
REMARK  104  A    between atoms: _256  and  _258
REMARK  105  A    between atoms: _258  and  _259
REMARK  106  A    between atoms: _262  and  _264
REMARK  107  A    between atoms: _264  and  _265
REMARK  108  A    between atoms: _264  and  _267
REMARK  109  A    between atoms: _267  and  _268
REMARK  110  A    between atoms: _268  and  _269
REMARK  111  A    between atoms: _271  and  _273
REMARK  112  A    between atoms: _273  and  _274
REMARK  113  A    between atoms: _273  and  _276
REMARK  114  A    between atoms: _276  and  _277
REMARK  115  A    between atoms: _280  and  _282
REMARK  116  A    between atoms: _282  and  _283
REMARK  117  A    between atoms: _282  and  _285
REMARK  118  A    between atoms: _288  and  _290
REMARK  119  A    between atoms: _290  and  _291
REMARK  120  A    between atoms: _290  and  _293
REMARK  121  A    between atoms: _293  and  _294
REMARK  122  A    between atoms: _296  and  _298
REMARK  123  A    between atoms: _298  and  _299
REMARK  124  A    between atoms: _298  and  _301
REMARK  125  A    between atoms: _301  and  _302
REMARK  126  A    between atoms: _302  and  _303
REMARK  127  A    between atoms: _303  and  _304
REMARK  128  A    between atoms: _304  and  _305
REMARK  129  A    between atoms: _310  and  _311
REMARK  130  A    between atoms: _316  and  _318
REMARK  131  A    between atoms: _318  and  _319
REMARK  132  A    between atoms: _318  and  _321
REMARK  133  A    between atoms: _321  and  _322
REMARK  134  A    between atoms: _327  and  _328
REMARK  135  A    between atoms: _330  and  _332
REMARK  136  A    between atoms: _332  and  _333
REMARK  137  A    between atoms: _332  and  _335
REMARK  138  A    between atoms: _335  and  _336
REMARK  139  A    between atoms: _339  and  _341
REMARK  140  A    between atoms: _341  and  _342
REMARK  141  A    between atoms: _341  and  _344
REMARK  142  A    between atoms: _344  and  _345
REMARK  143  A    between atoms: _348  and  _350
REMARK  144  A    between atoms: _350  and  _351
REMARK  145  A    between atoms: _350  and  _353
REMARK  146  A    between atoms: _353  and  _354
REMARK  147  A    between atoms: _357  and  _359
REMARK  148  A    between atoms: _359  and  _360
REMARK  149  A    between atoms: _359  and  _362
REMARK  150  A    between atoms: _362  and  _363
REMARK  151  A    between atoms: _366  and  _368
REMARK  152  A    between atoms: _368  and  _369
REMARK  153  A    between atoms: _368  and  _371
REMARK  154  A    between atoms: _371  and  _372
REMARK  155  A    between atoms: _374  and  _376
REMARK  156  A    between atoms: _376  and  _377
REMARK  157  A    between atoms: _376  and  _379
REMARK  158  A    between atoms: _379  and  _380
REMARK  159  A    between atoms: _385  and  _386
REMARK  160  A    between atoms: _388  and  _390
REMARK  161  A    between atoms: _390  and  _391
REMARK  162  A    between atoms: _390  and  _393
REMARK  163  A    between atoms: _393  and  _394
REMARK  164  A    between atoms: _397  and  _399
REMARK  165  A    between atoms: _399  and  _400
REMARK  166  A    between atoms: _399  and  _402
REMARK  167  A    between atoms: _402  and  _403
REMARK  168  A    between atoms: _408  and  _410
REMARK  169  A    between atoms: _410  and  _411
REMARK  170  A    between atoms: _410  and  _413
REMARK  171  A    between atoms: _413  and  _414
REMARK  172  A    between atoms: _418  and  _419
REMARK  173  A    between atoms: _424  and  _426
REMARK  174  A    between atoms: _426  and  _427
REMARK  175  A    between atoms: _426  and  _429
REMARK  176  A    between atoms: _429  and  _430
REMARK  177  A    between atoms: _433  and  _435
REMARK  178  A    between atoms: _435  and  _436
REMARK  179  A    between atoms: _439  and  _441
REMARK  180  A    between atoms: _441  and  _442
REMARK  181  A    between atoms: _441  and  _444
REMARK  182  A    between atoms: _444  and  _445
REMARK  183  A    between atoms: _445  and  _446
REMARK  184  A    between atoms: _448  and  _450
REMARK  185  A    between atoms: _450  and  _451
REMARK  186  A    between atoms: _450  and  _453
REMARK  187  A    between atoms: _453  and  _454
REMARK  188  A    between atoms: _459  and  _461
REMARK  189  A    between atoms: _461  and  _462
REMARK  190  A    between atoms: _461  and  _464
REMARK  191  A    between atoms: _464  and  _465
REMARK  192  A    between atoms: _475  and  _477
REMARK  193  A    between atoms: _477  and  _478
REMARK  194  A    between atoms: _477  and  _480
REMARK  195  A    between atoms: _483  and  _485
REMARK  196  A    between atoms: _485  and  _486
REMARK  197  A    between atoms: _485  and  _488
REMARK  198  A    between atoms: _488  and  _489
REMARK  199  A    between atoms: _489  and  _490
REMARK  200  A    between atoms: _490  and  _491
REMARK  201  A    between atoms: _491  and  _492
REMARK  202  A    between atoms: _496  and  _498
REMARK  203  A    between atoms: _498  and  _499
REMARK  204  A    between atoms: _498  and  _501
REMARK  205  A    between atoms: _501  and  _502
REMARK  206  A    between atoms: _502  and  _503
REMARK  207  A    between atoms: _506  and  _508
REMARK  208  A    between atoms: _508  and  _509
REMARK  209  A    between atoms: _508  and  _511
REMARK  210  A    between atoms: _511  and  _512
REMARK  211  A    between atoms: _515  and  _517
REMARK  212  A    between atoms: _517  and  _518
REMARK  213  A    between atoms: _517  and  _520
REMARK  214  A    between atoms: _520  and  _521
REMARK  215  A    between atoms: _521  and  _522
REMARK  216  A    between atoms: _522  and  _523
REMARK  217  A    between atoms: _532  and  _534
REMARK  218  A    between atoms: _534  and  _535
REMARK  219  A    between atoms: _534  and  _537
REMARK  220  A    between atoms: _537  and  _538
REMARK  221  A    between atoms: _543  and  _545
REMARK  222  A    between atoms: _545  and  _546
REMARK  223  A    between atoms: _545  and  _548
REMARK  224  A    between atoms: _548  and  _549
REMARK  225  A    between atoms: _552  and  _554
REMARK  226  A    between atoms: _554  and  _555
REMARK  227  A    between atoms: _554  and  _557
REMARK  228  A    between atoms: _557  and  _558
REMARK  229  A    between atoms: _563  and  _565
REMARK  230  A    between atoms: _565  and  _566
REMARK  231  A    between atoms: _565  and  _568
REMARK  232  A    between atoms: _568  and  _569
REMARK  233  A    between atoms: _569  and  _570
REMARK  234  A    between atoms: _570  and  _571
REMARK  235  A    between atoms: _580  and  _582
REMARK  236  A    between atoms: _582  and  _583
REMARK  237  A    between atoms: _582  and  _585
REMARK  238  A    between atoms: _585  and  _586
REMARK  239  A    between atoms: _586  and  _587
REMARK  240  A    between atoms: _589  and  _591
REMARK  241  A    between atoms: _591  and  _592
REMARK  242  A    between atoms: _591  and  _594
REMARK  243  A    between atoms: _594  and  _595
REMARK  244  A    between atoms: _595  and  _596
REMARK  245  A    between atoms: _598  and  _600
REMARK  246  A    between atoms: _600  and  _601
REMARK  247  A    between atoms: _600  and  _603
REMARK  248  A    between atoms: _603  and  _604
REMARK  249  A    between atoms: _604  and  _605
REMARK  250  A    between atoms: _605  and  _606
REMARK  251  A    between atoms: _606  and  _607
REMARK  252  A    between atoms: _611  and  _613
REMARK  253  A    between atoms: _613  and  _614
REMARK  254  A    between atoms: _613  and  _616
REMARK  255  A    between atoms: _616  and  _617
REMARK                            x       y       z     vdW  Elec       q    Type
REMARK                         _______ _______ _______ _____ _____    ______ ____
ROOT
ATOM      1  CA  ARG A   1      59.732   1.366  22.100  0.00  0.00    +0.145 C 
ENDROOT
BRANCH   1   2
ATOM      2  C   ARG A   1      58.733   1.375  20.954  0.00  0.00    +0.241 C 
ATOM      3  N   PRO A   2      57.497   0.934  21.220  0.00  0.00    -0.273 N 
ATOM      4  CD  PRO A   2      56.959   0.657  22.566  0.00  0.00    +0.094 C 
ATOM      5  CG  PRO A   2      55.450   0.771  22.359  0.00  0.00    +0.024 C 
ATOM      6  CB  PRO A   2      55.283   0.215  20.965  0.00  0.00    +0.030 C 
ATOM      7  CA  PRO A   2      56.437   0.870  20.211  0.00  0.00    +0.140 C 
ATOM      8  O   ARG A   1      59.052   1.803  19.846  0.00  0.00    -0.273 OA
BRANCH   7   9
ATOM      9  C   PRO A   2      56.043   2.204  19.601  0.00  0.00    +0.227 C 
ATOM     10  O   PRO A   2      56.033   3.232  20.273  0.00  0.00    -0.286 OA
ENDBRANCH   7   9
ENDBRANCH   1   2
BRANCH   1  11
ATOM     11  N   ARG A   1      60.911   0.624  21.657  0.00  0.00    -0.238 NA
ATOM     12  H   ARG A   1      61.663   1.116  21.134  0.00  0.00    +0.142 HD
ENDBRANCH   1  11
BRANCH   1  13
ATOM     13  CB  ARG A   1      60.100   2.801  22.492  0.00  0.00    +0.030 C 
BRANCH  13  14
ATOM     14  CG  ARG A   1      61.333   2.908  23.365  0.00  0.00    +0.045 C 
BRANCH  14  15
ATOM     15  CD  ARG A   1      61.295   1.934  24.523  0.00  0.00    +0.174 C 
BRANCH  15  16
ATOM     16  NE  ARG A   1      62.639   1.732  25.054  0.00  0.00    -0.265 N 
ATOM     17  CZ  ARG A   1      63.049   0.617  25.643  0.00  0.00    +0.342 C 
ATOM     18  NH2 ARG A   1      64.291   0.530  26.093  0.00  0.00    -0.292 N 
ATOM     19 HH21 ARG A   1      64.617  -0.343  26.556  0.00  0.00    +0.255 HD
ATOM     20 HH22 ARG A   1      64.941   1.334  25.984  0.00  0.00    +0.255 HD
ATOM     21  NH1 ARG A   1      62.216  -0.412  25.774  0.00  0.00    -0.292 N 
ATOM     22 HH11 ARG A   1      62.538  -1.286  26.236  0.00  0.00    +0.255 HD
ATOM     23 HH12 ARG A   1      61.243  -0.342  25.414  0.00  0.00    +0.255 HD
ATOM     24  HE  ARG A   1      63.320   2.513  24.965  0.00  0.00    +0.259 HD
ENDBRANCH  15  16
ENDBRANCH  14  15
ENDBRANCH  13  14
ENDBRANCH   1  13
TORSDOF 7
REMARK  Name = ../refined-set-2016/1x8t/1x8t_pocket.pdb
REMARK  255 active torsions:
REMARK  status: ('A' for Active; 'I' for Inactive)
REMARK    1  A    between atoms: _1  and  _3
REMARK    2  A    between atoms: _3  and  _4
REMARK    3  A    between atoms: _3  and  _6
REMARK    4  A    between atoms: _6  and  _7
REMARK    5  A    between atoms: _9  and  _11
REMARK    6  A    between atoms: _11  and  _12
REMARK    7  A    between atoms: _11  and  _14
REMARK    8  A    between atoms: _14  and  _15
REMARK    9  A    between atoms: _15  and  _16
REMARK   10  A    between atoms: _16  and  _17
REMARK   11  A    between atoms: _17  and  _18
REMARK   12  A    between atoms: _22  and  _24
REMARK   13  A    between atoms: _24  and  _25
REMARK   14  A    between atoms: _24  and  _27
REMARK   15  A    between atoms: _27  and  _28
REMARK   16  A    between atoms: _30  and  _32
REMARK   17  A    between atoms: _32  and  _33
REMARK   18  A    between atoms: _32  and  _35
REMARK   19  A    between atoms: _38  and  _40
REMARK   20  A    between atoms: _40  and  _41
REMARK   21  A    between atoms: _40  and  _43
REMARK   22  A    between atoms: _43  and  _44
REMARK   23  A    between atoms: _46  and  _48
REMARK   24  A    between atoms: _48  and  _49
REMARK   25  A    between atoms: _48  and  _51
REMARK   26  A    between atoms: _51  and  _52
REMARK   27  A    between atoms: _57  and  _59
REMARK   28  A    between atoms: _59  and  _60
REMARK   29  A    between atoms: _59  and  _62
REMARK   30  A    between atoms: _62  and  _63
REMARK   31  A    between atoms: _63  and  _64
REMARK   32  A    between atoms: _64  and  _65
REMARK   33  A    between atoms: _74  and  _76
REMARK   34  A    between atoms: _76  and  _77
REMARK   35  A    between atoms: _76  and  _79
REMARK   36  A    between atoms: _79  and  _80
REMARK   37  A    between atoms: _83  and  _85
REMARK   38  A    between atoms: _85  and  _86
REMARK   39  A    between atoms: _85  and  _88
REMARK   40  A    between atoms: _88  and  _89
REMARK   41  A    between atoms: _94  and  _96
REMARK   42  A    between atoms: _96  and  _97
REMARK   43  A    between atoms: _100  and  _102
REMARK   44  A    between atoms: _102  and  _103
REMARK   45  A    between atoms: _105  and  _107
REMARK   46  A    between atoms: _107  and  _108
REMARK   47  A    between atoms: _107  and  _110
REMARK   48  A    between atoms: _110  and  _111
REMARK   49  A    between atoms: _114  and  _116
REMARK   50  A    between atoms: _116  and  _117
REMARK   51  A    between atoms: _120  and  _122
REMARK   52  A    between atoms: _122  and  _123
REMARK   53  A    between atoms: _122  and  _125
REMARK   54  A    between atoms: _125  and  _126
REMARK   55  A    between atoms: _126  and  _127
REMARK   56  A    between atoms: _129  and  _131
REMARK   57  A    between atoms: _131  and  _132
REMARK   58  A    between atoms: _131  and  _134
REMARK   59  A    between atoms: _134  and  _135
REMARK   60  A    between atoms: _135  and  _136
REMARK   61  A    between atoms: _136  and  _137
REMARK   62  A    between atoms: _147  and  _148
REMARK   63  A    between atoms: _153  and  _155
REMARK   64  A    between atoms: _155  and  _156
REMARK   65  A    between atoms: _155  and  _158
REMARK   66  A    between atoms: _158  and  _159
REMARK   67  A    between atoms: _159  and  _160
REMARK   68  A    between atoms: _160  and  _161
REMARK   69  A    between atoms: _171  and  _172
REMARK   70  A    between atoms: _177  and  _179
REMARK   71  A    between atoms: _179  and  _180
REMARK   72  A    between atoms: _182  and  _184
REMARK   73  A    between atoms: _184  and  _185
REMARK   74  A    between atoms: _184  and  _187
REMARK   75  A    between atoms: _187  and  _188
REMARK   76  A    between atoms: _190  and  _192
REMARK   77  A    between atoms: _192  and  _193
REMARK   78  A    between atoms: _192  and  _195
REMARK   79  A    between atoms: _198  and  _200
REMARK   80  A    between atoms: _200  and  _201
REMARK   81  A    between atoms: _200  and  _203
REMARK   82  A    between atoms: _203  and  _204
REMARK   83  A    between atoms: _206  and  _208
REMARK   84  A    between atoms: _208  and  _209
REMARK   85  A    between atoms: _208  and  _211
REMARK   86  A    between atoms: _211  and  _212
REMARK   87  A    between atoms: _214  and  _216
REMARK   88  A    between atoms: _216  and  _217
REMARK   89  A    between atoms: _216  and  _219
REMARK   90  A    between atoms: _219  and  _220
REMARK   91  A    between atoms: _220  and  _221
REMARK   92  A    between atoms: _226  and  _228
REMARK   93  A    between atoms: _228  and  _229
REMARK   94  A    between atoms: _228  and  _231
REMARK   95  A    between atoms: _231  and  _232
REMARK   96  A    between atoms: _238  and  _240
REMARK   97  A    between atoms: _240  and  _241
REMARK   98  A    between atoms: _240  and  _243
REMARK   99  A    between atoms: _243  and  _244
REMARK  100  A    between atoms: _247  and  _249
REMARK  101  A    between atoms: _249  and  _250
REMARK  102  A    between atoms: _249  and  _252
REMARK  103  A    between atoms: _252  and  _253
REMARK  104  A    between atoms: _256  and  _258
REMARK  105  A    between atoms: _258  and  _259
REMARK  106  A    between atoms: _262  and  _264
REMARK  107  A    between atoms: _264  and  _265
REMARK  108  A    between atoms: _264  and  _267
REMARK  109  A    between atoms: _267  and  _268
REMARK  110  A    between atoms: _268  and  _269
REMARK  111  A    between atoms: _271  and  _273
REMARK  112  A    between atoms: _273  and  _274
REMARK  113  A    between atoms: _273  and  _276
REMARK  114  A    between atoms: _276  and  _277
REMARK  115  A    between atoms: _280  and  _282
REMARK  116  A    between atoms: _282  and  _283
REMARK  117  A    between atoms: _282  and  _285
REMARK  118  A    between atoms: _288  and  _290
REMARK  119  A    between atoms: _290  and  _291
REMARK  120  A    between atoms: _290  and  _293
REMARK  121  A    between atoms: _293  and  _294
REMARK  122  A    between atoms: _296  and  _298
REMARK  123  A    between atoms: _298  and  _299
REMARK  124  A    between atoms: _298  and  _301
REMARK  125  A    between atoms: _301  and  _302
REMARK  126  A    between atoms: _302  and  _303
REMARK  127  A    between atoms: _303  and  _304
REMARK  128  A    between atoms: _304  and  _305
REMARK  129  A    between atoms: _310  and  _311
REMARK  130  A    between atoms: _316  and  _318
REMARK  131  A    between atoms: _318  and  _319
REMARK  132  A    between atoms: _318  and  _321
REMARK  133  A    between atoms: _321  and  _322
REMARK  134  A    between atoms: _327  and  _328
REMARK  135  A    between atoms: _330  and  _332
REMARK  136  A    between atoms: _332  and  _333
REMARK  137  A    between atoms: _332  and  _335
REMARK  138  A    between atoms: _335  and  _336
REMARK  139  A    between atoms: _339  and  _341
REMARK  140  A    between atoms: _341  and  _342
REMARK  141  A    between atoms: _341  and  _344
REMARK  142  A    between atoms: _344  and  _345
REMARK  143  A    between atoms: _348  and  _350
REMARK  144  A    between atoms: _350  and  _351
REMARK  145  A    between atoms: _350  and  _353
REMARK  146  A    between atoms: _353  and  _354
REMARK  147  A    between atoms: _357  and  _359
REMARK  148  A    between atoms: _359  and  _360
REMARK  149  A    between atoms: _359  and  _362
REMARK  150  A    between atoms: _362  and  _363
REMARK  151  A    between atoms: _366  and  _368
REMARK  152  A    between atoms: _368  and  _369
REMARK  153  A    between atoms: _368  and  _371
REMARK  154  A    between atoms: _371  and  _372
REMARK  155  A    between atoms: _374  and  _376
REMARK  156  A    between atoms: _376  and  _377
REMARK  157  A    between atoms: _376  and  _379
REMARK  158  A    between atoms: _379  and  _380
REMARK  159  A    between atoms: _385  and  _386
REMARK  160  A    between atoms: _388  and  _390
REMARK  161  A    between atoms: _390  and  _391
REMARK  162  A    between atoms: _390  and  _393
REMARK  163  A    between atoms: _393  and  _394
REMARK  164  A    between atoms: _397  and  _399
REMARK  165  A    between atoms: _399  and  _400
REMARK  166  A    between atoms: _399  and  _402
REMARK  167  A    between atoms: _402  and  _403
REMARK  168  A    between atoms: _408  and  _410
REMARK  169  A    between atoms: _410  and  _411
REMARK  170  A    between atoms: _410  and  _413
REMARK  171  A    between atoms: _413  and  _414
REMARK  172  A    between atoms: _418  and  _419
REMARK  173  A    between atoms: _424  and  _426
REMARK  174  A    between atoms: _426  and  _427
REMARK  175  A    between atoms: _426  and  _429
REMARK  176  A    between atoms: _429  and  _430
REMARK  177  A    between atoms: _433  and  _435
REMARK  178  A    between atoms: _435  and  _436
REMARK  179  A    between atoms: _439  and  _441
REMARK  180  A    between atoms: _441  and  _442
REMARK  181  A    between atoms: _441  and  _444
REMARK  182  A    between atoms: _444  and  _445
REMARK  183  A    between atoms: _445  and  _446
REMARK  184  A    between atoms: _448  and  _450
REMARK  185  A    between atoms: _450  and  _451
REMARK  186  A    between atoms: _450  and  _453
REMARK  187  A    between atoms: _453  and  _454
REMARK  188  A    between atoms: _459  and  _461
REMARK  189  A    between atoms: _461  and  _462
REMARK  190  A    between atoms: _461  and  _464
REMARK  191  A    between atoms: _464  and  _465
REMARK  192  A    between atoms: _475  and  _477
REMARK  193  A    between atoms: _477  and  _478
REMARK  194  A    between atoms: _477  and  _480
REMARK  195  A    between atoms: _483  and  _485
REMARK  196  A    between atoms: _485  and  _486
REMARK  197  A    between atoms: _485  and  _488
REMARK  198  A    between atoms: _488  and  _489
REMARK  199  A    between atoms: _489  and  _490
REMARK  200  A    between atoms: _490  and  _491
REMARK  201  A    between atoms: _491  and  _492
REMARK  202  A    between atoms: _496  and  _498
REMARK  203  A    between atoms: _498  and  _499
REMARK  204  A    between atoms: _498  and  _501
REMARK  205  A    between atoms: _501  and  _502
REMARK  206  A    between atoms: _502  and  _503
REMARK  207  A    between atoms: _506  and  _508
REMARK  208  A    between atoms: _508  and  _509
REMARK  209  A    between atoms: _508  and  _511
REMARK  210  A    between atoms: _511  and  _512
REMARK  211  A    between atoms: _515  and  _517
REMARK  212  A    between atoms: _517  and  _518
REMARK  213  A    between atoms: _517  and  _520
REMARK  214  A    between atoms: _520  and  _521
REMARK  215  A    between atoms: _521  and  _522
REMARK  216  A    between atoms: _522  and  _523
REMARK  217  A    between atoms: _532  and  _534
REMARK  218  A    between atoms: _534  and  _535
REMARK  219  A    between atoms: _534  and  _537
REMARK  220  A    between atoms: _537  and  _538
REMARK  221  A    between atoms: _543  and  _545
REMARK  222  A    between atoms: _545  and  _546
REMARK  223  A    between atoms: _545  and  _548
REMARK  224  A    between atoms: _548  and  _549
REMARK  225  A    between atoms: _552  and  _554
REMARK  226  A    between atoms: _554  and  _555
REMARK  227  A    between atoms: _554  and  _557
REMARK  228  A    between atoms: _557  and  _558
REMARK  229  A    between atoms: _563  and  _565
REMARK  230  A    between atoms: _565  and  _566
REMARK  231  A    between atoms: _565  and  _568
REMARK  232  A    between atoms: _568  and  _569
REMARK  233  A    between atoms: _569  and  _570
REMARK  234  A    between atoms: _570  and  _571
REMARK  235  A    between atoms: _580  and  _582
REMARK  236  A    between atoms: _582  and  _583
REMARK  237  A    between atoms: _582  and  _585
REMARK  238  A    between atoms: _585  and  _586
REMARK  239  A    between atoms: _586  and  _587
REMARK  240  A    between atoms: _589  and  _591
REMARK  241  A    between atoms: _591  and  _592
REMARK  242  A    between atoms: _591  and  _594
REMARK  243  A    between atoms: _594  and  _595
REMARK  244  A    between atoms: _595  and  _596
REMARK  245  A    between atoms: _598  and  _600
REMARK  246  A    between atoms: _600  and  _601
REMARK  247  A    between atoms: _600  and  _603
REMARK  248  A    between atoms: _603  and  _604
REMARK  249  A    between atoms: _604  and  _605
REMARK  250  A    between atoms: _605  and  _606
REMARK  251  A    between atoms: _606  and  _607
REMARK  252  A    between atoms: _611  and  _613
REMARK  253  A    between atoms: _613  and  _614
REMARK  254  A    between atoms: _613  and  _616
REMARK  255  A    between atoms: _616  and  _617
REMARK                            x       y       z     vdW  Elec       q    Type
REMARK                         _______ _______ _______ _____ _____    ______ ____
ROOT
ATOM      1  CA  GLN A   6      52.701  10.342  23.036  0.00  0.00    +0.149 C 
ENDROOT
BRANCH   1   2
ATOM      2  C   GLN A   6      52.316  10.265  21.569  0.00  0.00    +0.241 C 
ATOM      3  N   PHE A   7      51.573   9.234  21.182  0.00  0.00    -0.297 N 
ATOM      4  H   PHE A   7      51.275   8.510  21.866  0.00  0.00    +0.150 HD
ATOM      5  O   GLN A   6      52.697  11.132  20.784  0.00  0.00    -0.273 OA
BRANCH   3   6
ATOM      6  CA  PHE A   7      51.185   9.136  19.786  0.00  0.00    +0.153 C 
BRANCH   6   7
ATOM      7  C   PHE A   7      50.207  10.271  19.500  0.00  0.00    +0.241 C 
ATOM      8  N   LEU A   8      49.219  10.444  20.371  0.00  0.00    -0.297 N 
ATOM      9  H   LEU A   8      49.125   9.795  21.178  0.00  0.00    +0.150 HD
ATOM     10  O   PHE A   7      50.360  10.998  18.524  0.00  0.00    -0.273 OA
BRANCH   8  11
ATOM     11  CA  LEU A   8      48.263  11.536  20.207  0.00  0.00    +0.149 C 
BRANCH  11  12
ATOM     12  C   LEU A   8      49.005  12.865  20.227  0.00  0.00    +0.241 C 
ATOM     13  N   THR A   9      49.939  13.005  21.161  0.00  0.00    -0.295 N 
ATOM     14  H   THR A   9      50.118  12.230  21.831  0.00  0.00    +0.150 HD
ATOM     15  O   LEU A   8      48.737  13.757  19.427  0.00  0.00    -0.273 OA
BRANCH  13  16
ATOM     16  CA  THR A   9      50.716  14.238  21.255  0.00  0.00    +0.176 C 
BRANCH  16  17
ATOM     17  C   THR A   9      51.394  14.572  19.926  0.00  0.00    +0.243 C 
ATOM     18  O   THR A   9      51.329  15.710  19.451  0.00  0.00    -0.273 OA
ATOM     19  N   ALA A  10      52.035  13.573  19.332  0.00  0.00    -0.298 N 
ATOM     20  H   ALA A  10      52.047  12.639  19.788  0.00  0.00    +0.150 HD
BRANCH  19  21
ATOM     21  CA  ALA A  10      52.722  13.747  18.061  0.00  0.00    +0.137 C 
ATOM     22  CB  ALA A  10      53.436  12.454  17.676  0.00  0.00    +0.030 C 
BRANCH  21  23
ATOM     23  C   ALA A  10      51.731  14.169  16.967  0.00  0.00    +0.227 C 
ATOM     24  O   ALA A  10      52.005  15.085  16.190  0.00  0.00    -0.286 OA
ENDBRANCH  21  23
ENDBRANCH  19  21
ENDBRANCH  16  17
BRANCH  16  25
ATOM     25  CB  THR A   9      51.771  14.121  22.376  0.00  0.00    +0.137 C 
ATOM     26  CG2 THR A   9      52.972  15.027  22.105  0.00  0.00    +0.034 C 
BRANCH  25  27
ATOM     27  OG1 THR A   9      51.160  14.484  23.620  0.00  0.00    -0.382 OA
ATOM     28  HG1 THR A   9      50.829  15.415  23.564  0.00  0.00    +0.210 HD
ENDBRANCH  25  27
ENDBRANCH  16  25
ENDBRANCH  13  16
ENDBRANCH  11  12
BRANCH  11  29
ATOM     29  CB  LEU A   8      47.238  11.522  21.339  0.00  0.00    +0.029 C 
BRANCH  29  30
ATOM     30  CG  LEU A   8      46.214  12.655  21.293  0.00  0.00    +0.002 C 
ATOM     31  CD2 LEU A   8      45.204  12.452  22.421  0.00  0.00    +0.000 C 
ATOM     32  CD1 LEU A   8      45.514  12.685  19.931  0.00  0.00    +0.000 C 
ENDBRANCH  29  30
ENDBRANCH  11  29
ENDBRANCH   8  11
ENDBRANCH   6   7
BRANCH   6  33
ATOM     33  CB  PHE A   7      50.593   7.753  19.505  0.00  0.00    +0.055 C 
BRANCH  33  34
ATOM     34  CG  PHE A   7      51.473   6.617  19.988  0.00  0.00    -0.020 A 
ATOM     35  CD2 PHE A   7      50.927   5.527  20.648  0.00  0.00    -0.004 A 
ATOM     36  CE2 PHE A   7      51.734   4.475  21.092  0.00  0.00    -0.000 A 
ATOM     37  CZ  PHE A   7      53.110   4.511  20.873  0.00  0.00    -0.000 A 
ATOM     38  CE1 PHE A   7      53.678   5.599  20.214  0.00  0.00    -0.000 A 
ATOM     39  CD1 PHE A   7      52.854   6.649  19.774  0.00  0.00    -0.004 A 
ENDBRANCH  33  34
ENDBRANCH   6  33
ENDBRANCH   3   6
ENDBRANCH   1   2
BRANCH   1  41
ATOM     40  C   SER A   5      50.524  10.173  24.086  0.00  0.00    +0.243 C 
ATOM     41  N   GLN A   6      51.767   9.714  23.968  0.00  0.00    -0.297 N 
ATOM     42  H   GLN A   6      52.076   8.904  24.542  0.00  0.00    +0.150 HD
ATOM     43  O   SER A   5      50.098  11.104  23.408  0.00  0.00    -0.273 OA
BRANCH  40  44
ATOM     44  CA  SER A   5      49.630   9.483  25.115  0.00  0.00    +0.178 C 
BRANCH  44  46
ATOM     45  C   SER A   4      50.172   7.173  24.594  0.00  0.00    +0.243 C 
ATOM     46  N   SER A   5      50.235   8.200  25.434  0.00  0.00    -0.295 N 
ATOM     47  H   SER A   5      50.729   8.084  26.342  0.00  0.00    +0.150 HD
ATOM     48  O   SER A   4      49.587   7.219  23.515  0.00  0.00    -0.273 OA
BRANCH  45  49
ATOM     49  CA  SER A   4      50.889   5.909  25.035  0.00  0.00    +0.178 C 
BRANCH  49  52
ATOM     50  C   VAL A   3      50.249   3.660  25.612  0.00  0.00    +0.241 C 
ATOM     51  O   VAL A   3      51.039   3.664  26.557  0.00  0.00    -0.273 OA
ATOM     52  N   SER A   4      50.103   4.702  24.805  0.00  0.00    -0.295 N 
ATOM     53  H   SER A   4      49.431   4.659  24.012  0.00  0.00    +0.150 HD
BRANCH  50  54
ATOM     54  CA  VAL A   3      49.386   2.434  25.324  0.00  0.00    +0.149 C 
BRANCH  54  57
ATOM     55  C   SER A   2      47.012   2.627  25.751  0.00  0.00    +0.243 C 
ATOM     56  O   SER A   2      47.152   2.124  26.866  0.00  0.00    -0.273 OA
ATOM     57  N   VAL A   3      48.035   2.808  24.920  0.00  0.00    -0.297 N 
ATOM     58  H   VAL A   3      47.871   3.218  23.978  0.00  0.00    +0.150 HD
BRANCH  55  59
ATOM     59  CA  SER A   2      45.627   3.054  25.279  0.00  0.00    +0.178 C 
BRANCH  59  62
ATOM     60  C   GLY A   1      45.717   5.301  24.307  0.00  0.00    +0.240 C 
ATOM     61  O   GLY A   1      45.983   5.838  25.383  0.00  0.00    -0.274 OA
ATOM     62  N   SER A   2      45.571   3.988  24.159  0.00  0.00    -0.295 N 
ATOM     63  H   SER A   2      45.410   3.610  23.204  0.00  0.00    +0.150 HD
BRANCH  60  64
ATOM     64  CA  GLY A   1      45.574   6.128  23.043  0.00  0.00    +0.169 C 
BRANCH  64  65
ATOM     65  N   GLY A   1      44.907   5.383  21.988  0.00  0.00    -0.236 NA
ATOM     66  H   GLY A   1      43.905   5.121  22.084  0.00  0.00    +0.142 HD
ENDBRANCH  64  65
ENDBRANCH  60  64
ENDBRANCH  59  62
BRANCH  59  67
ATOM     67  CB  SER A   2      44.801   1.809  24.947  0.00  0.00    +0.166 C 
BRANCH  67  68
ATOM     68  OG  SER A   2      45.468   0.970  24.023  0.00  0.00    -0.380 OA
ATOM     69  H   SER A   2      45.631   1.469  23.184  0.00  0.00    +0.211 HD
ENDBRANCH  67  68
ENDBRANCH  59  67
ENDBRANCH  55  59
ENDBRANCH  54  57
BRANCH  54  70
ATOM     70  CB  VAL A   3      50.081   1.564  24.256  0.00  0.00    +0.027 C 
ATOM     71  CG2 VAL A   3      51.561   1.382  24.608  0.00  0.00    +0.002 C 
ATOM     72  CG1 VAL A   3      49.389   0.195  24.178  0.00  0.00    +0.002 C 
ENDBRANCH  54  70
ENDBRANCH  50  54
ENDBRANCH  49  52
BRANCH  49  73
ATOM     73  CB  SER A   4      52.229   5.820  24.298  0.00  0.00    +0.166 C 
BRANCH  73  74
ATOM     74  OG  SER A   4      53.011   6.966  24.564  0.00  0.00    -0.380 OA
ATOM     75  H   SER A   4      53.180   7.030  25.537  0.00  0.00    +0.211 HD
ENDBRANCH  73  74
ENDBRANCH  49  73
ENDBRANCH  45  49
ENDBRANCH  44  46
BRANCH  44  76
ATOM     76  CB  SER A   5      49.558  10.369  26.360  0.00  0.00    +0.166 C 
BRANCH  76  77
ATOM     77  OG  SER A   5      50.863  10.800  26.735  0.00  0.00    -0.380 OA
ATOM     78  H   SER A   5      51.426  10.010  26.932  0.00  0.00    +0.211 HD
ENDBRANCH  76  77
ENDBRANCH  44  76
ENDBRANCH  40  44
ENDBRANCH   1  41
BRANCH   1  79
ATOM     79  CB  GLN A   6      54.103   9.766  23.224  0.00  0.00    +0.039 C 
BRANCH  79  80
ATOM     80  CG  GLN A   6      54.697  10.084  24.581  0.00  0.00    +0.087 C 
BRANCH  80  81
ATOM     81  CD  GLN A   6      56.097   9.524  24.718  0.00  0.00    +0.219 C 
ATOM     82  NE2 GLN A   6      56.300   8.676  25.716  0.00  0.00    -0.329 N 
ATOM     83 HE21 GLN A   6      55.519   8.432  26.358  0.00  0.00    +0.145 HD
ATOM     84 HE22 GLN A   6      57.240   8.255  25.857  0.00  0.00    +0.145 HD
ATOM     85  OE1 GLN A   6      56.982   9.849  23.929  0.00  0.00    -0.275 OA
ENDBRANCH  80  81
ENDBRANCH  79  80
ENDBRANCH   1  79
TORSDOF 36
REMARK  Name = ../refined-set-2016/1x8t/1x8t_pocket.pdb
REMARK  255 active torsions:
REMARK  status: ('A' for Active; 'I' for Inactive)
REMARK    1  A    between atoms: _1  and  _3
REMARK    2  A    between atoms: _3  and  _4
REMARK    3  A    between atoms: _3  and  _6
REMARK    4  A    between atoms: _6  and  _7
REMARK    5  A    between atoms: _9  and  _11
REMARK    6  A    between atoms: _11  and  _12
REMARK    7  A    between atoms: _11  and  _14
REMARK    8  A    between atoms: _14  and  _15
REMARK    9  A    between atoms: _15  and  _16
REMARK   10  A    between atoms: _16  and  _17
REMARK   11  A    between atoms: _17  and  _18
REMARK   12  A    between atoms: _22  and  _24
REMARK   13  A    between atoms: _24  and  _25
REMARK   14  A    between atoms: _24  and  _27
REMARK   15  A    between atoms: _27  and  _28
REMARK   16  A    between atoms: _30  and  _32
REMARK   17  A    between atoms: _32  and  _33
REMARK   18  A    between atoms: _32  and  _35
REMARK   19  A    between atoms: _38  and  _40
REMARK   20  A    between atoms: _40  and  _41
REMARK   21  A    between atoms: _40  and  _43
REMARK   22  A    between atoms: _43  and  _44
REMARK   23  A    between atoms: _46  and  _48
REMARK   24  A    between atoms: _48  and  _49
REMARK   25  A    between atoms: _48  and  _51
REMARK   26  A    between atoms: _51  and  _52
REMARK   27  A    between atoms: _57  and  _59
REMARK   28  A    between atoms: _59  and  _60
REMARK   29  A    between atoms: _59  and  _62
REMARK   30  A    between atoms: _62  and  _63
REMARK   31  A    between atoms: _63  and  _64
REMARK   32  A    between atoms: _64  and  _65
REMARK   33  A    between atoms: _74  and  _76
REMARK   34  A    between atoms: _76  and  _77
REMARK   35  A    between atoms: _76  and  _79
REMARK   36  A    between atoms: _79  and  _80
REMARK   37  A    between atoms: _83  and  _85
REMARK   38  A    between atoms: _85  and  _86
REMARK   39  A    between atoms: _85  and  _88
REMARK   40  A    between atoms: _88  and  _89
REMARK   41  A    between atoms: _94  and  _96
REMARK   42  A    between atoms: _96  and  _97
REMARK   43  A    between atoms: _100  and  _102
REMARK   44  A    between atoms: _102  and  _103
REMARK   45  A    between atoms: _105  and  _107
REMARK   46  A    between atoms: _107  and  _108
REMARK   47  A    between atoms: _107  and  _110
REMARK   48  A    between atoms: _110  and  _111
REMARK   49  A    between atoms: _114  and  _116
REMARK   50  A    between atoms: _116  and  _117
REMARK   51  A    between atoms: _120  and  _122
REMARK   52  A    between atoms: _122  and  _123
REMARK   53  A    between atoms: _122  and  _125
REMARK   54  A    between atoms: _125  and  _126
REMARK   55  A    between atoms: _126  and  _127
REMARK   56  A    between atoms: _129  and  _131
REMARK   57  A    between atoms: _131  and  _132
REMARK   58  A    between atoms: _131  and  _134
REMARK   59  A    between atoms: _134  and  _135
REMARK   60  A    between atoms: _135  and  _136
REMARK   61  A    between atoms: _136  and  _137
REMARK   62  A    between atoms: _147  and  _148
REMARK   63  A    between atoms: _153  and  _155
REMARK   64  A    between atoms: _155  and  _156
REMARK   65  A    between atoms: _155  and  _158
REMARK   66  A    between atoms: _158  and  _159
REMARK   67  A    between atoms: _159  and  _160
REMARK   68  A    between atoms: _160  and  _161
REMARK   69  A    between atoms: _171  and  _172
REMARK   70  A    between atoms: _177  and  _179
REMARK   71  A    between atoms: _179  and  _180
REMARK   72  A    between atoms: _182  and  _184
REMARK   73  A    between atoms: _184  and  _185
REMARK   74  A    between atoms: _184  and  _187
REMARK   75  A    between atoms: _187  and  _188
REMARK   76  A    between atoms: _190  and  _192
REMARK   77  A    between atoms: _192  and  _193
REMARK   78  A    between atoms: _192  and  _195
REMARK   79  A    between atoms: _198  and  _200
REMARK   80  A    between atoms: _200  and  _201
REMARK   81  A    between atoms: _200  and  _203
REMARK   82  A    between atoms: _203  and  _204
REMARK   83  A    between atoms: _206  and  _208
REMARK   84  A    between atoms: _208  and  _209
REMARK   85  A    between atoms: _208  and  _211
REMARK   86  A    between atoms: _211  and  _212
REMARK   87  A    between atoms: _214  and  _216
REMARK   88  A    between atoms: _216  and  _217
REMARK   89  A    between atoms: _216  and  _219
REMARK   90  A    between atoms: _219  and  _220
REMARK   91  A    between atoms: _220  and  _221
REMARK   92  A    between atoms: _226  and  _228
REMARK   93  A    between atoms: _228  and  _229
REMARK   94  A    between atoms: _228  and  _231
REMARK   95  A    between atoms: _231  and  _232
REMARK   96  A    between atoms: _238  and  _240
REMARK   97  A    between atoms: _240  and  _241
REMARK   98  A    between atoms: _240  and  _243
REMARK   99  A    between atoms: _243  and  _244
REMARK  100  A    between atoms: _247  and  _249
REMARK  101  A    between atoms: _249  and  _250
REMARK  102  A    between atoms: _249  and  _252
REMARK  103  A    between atoms: _252  and  _253
REMARK  104  A    between atoms: _256  and  _258
REMARK  105  A    between atoms: _258  and  _259
REMARK  106  A    between atoms: _262  and  _264
REMARK  107  A    between atoms: _264  and  _265
REMARK  108  A    between atoms: _264  and  _267
REMARK  109  A    between atoms: _267  and  _268
REMARK  110  A    between atoms: _268  and  _269
REMARK  111  A    between atoms: _271  and  _273
REMARK  112  A    between atoms: _273  and  _274
REMARK  113  A    between atoms: _273  and  _276
REMARK  114  A    between atoms: _276  and  _277
REMARK  115  A    between atoms: _280  and  _282
REMARK  116  A    between atoms: _282  and  _283
REMARK  117  A    between atoms: _282  and  _285
REMARK  118  A    between atoms: _288  and  _290
REMARK  119  A    between atoms: _290  and  _291
REMARK  120  A    between atoms: _290  and  _293
REMARK  121  A    between atoms: _293  and  _294
REMARK  122  A    between atoms: _296  and  _298
REMARK  123  A    between atoms: _298  and  _299
REMARK  124  A    between atoms: _298  and  _301
REMARK  125  A    between atoms: _301  and  _302
REMARK  126  A    between atoms: _302  and  _303
REMARK  127  A    between atoms: _303  and  _304
REMARK  128  A    between atoms: _304  and  _305
REMARK  129  A    between atoms: _310  and  _311
REMARK  130  A    between atoms: _316  and  _318
REMARK  131  A    between atoms: _318  and  _319
REMARK  132  A    between atoms: _318  and  _321
REMARK  133  A    between atoms: _321  and  _322
REMARK  134  A    between atoms: _327  and  _328
REMARK  135  A    between atoms: _330  and  _332
REMARK  136  A    between atoms: _332  and  _333
REMARK  137  A    between atoms: _332  and  _335
REMARK  138  A    between atoms: _335  and  _336
REMARK  139  A    between atoms: _339  and  _341
REMARK  140  A    between atoms: _341  and  _342
REMARK  141  A    between atoms: _341  and  _344
REMARK  142  A    between atoms: _344  and  _345
REMARK  143  A    between atoms: _348  and  _350
REMARK  144  A    between atoms: _350  and  _351
REMARK  145  A    between atoms: _350  and  _353
REMARK  146  A    between atoms: _353  and  _354
REMARK  147  A    between atoms: _357  and  _359
REMARK  148  A    between atoms: _359  and  _360
REMARK  149  A    between atoms: _359  and  _362
REMARK  150  A    between atoms: _362  and  _363
REMARK  151  A    between atoms: _366  and  _368
REMARK  152  A    between atoms: _368  and  _369
REMARK  153  A    between atoms: _368  and  _371
REMARK  154  A    between atoms: _371  and  _372
REMARK  155  A    between atoms: _374  and  _376
REMARK  156  A    between atoms: _376  and  _377
REMARK  157  A    between atoms: _376  and  _379
REMARK  158  A    between atoms: _379  and  _380
REMARK  159  A    between atoms: _385  and  _386
REMARK  160  A    between atoms: _388  and  _390
REMARK  161  A    between atoms: _390  and  _391
REMARK  162  A    between atoms: _390  and  _393
REMARK  163  A    between atoms: _393  and  _394
REMARK  164  A    between atoms: _397  and  _399
REMARK  165  A    between atoms: _399  and  _400
REMARK  166  A    between atoms: _399  and  _402
REMARK  167  A    between atoms: _402  and  _403
REMARK  168  A    between atoms: _408  and  _410
REMARK  169  A    between atoms: _410  and  _411
REMARK  170  A    between atoms: _410  and  _413
REMARK  171  A    between atoms: _413  and  _414
REMARK  172  A    between atoms: _418  and  _419
REMARK  173  A    between atoms: _424  and  _426
REMARK  174  A    between atoms: _426  and  _427
REMARK  175  A    between atoms: _426  and  _429
REMARK  176  A    between atoms: _429  and  _430
REMARK  177  A    between atoms: _433  and  _435
REMARK  178  A    between atoms: _435  and  _436
REMARK  179  A    between atoms: _439  and  _441
REMARK  180  A    between atoms: _441  and  _442
REMARK  181  A    between atoms: _441  and  _444
REMARK  182  A    between atoms: _444  and  _445
REMARK  183  A    between atoms: _445  and  _446
REMARK  184  A    between atoms: _448  and  _450
REMARK  185  A    between atoms: _450  and  _451
REMARK  186  A    between atoms: _450  and  _453
REMARK  187  A    between atoms: _453  and  _454
REMARK  188  A    between atoms: _459  and  _461
REMARK  189  A    between atoms: _461  and  _462
REMARK  190  A    between atoms: _461  and  _464
REMARK  191  A    between atoms: _464  and  _465
REMARK  192  A    between atoms: _475  and  _477
REMARK  193  A    between atoms: _477  and  _478
REMARK  194  A    between atoms: _477  and  _480
REMARK  195  A    between atoms: _483  and  _485
REMARK  196  A    between atoms: _485  and  _486
REMARK  197  A    between atoms: _485  and  _488
REMARK  198  A    between atoms: _488  and  _489
REMARK  199  A    between atoms: _489  and  _490
REMARK  200  A    between atoms: _490  and  _491
REMARK  201  A    between atoms: _491  and  _492
REMARK  202  A    between atoms: _496  and  _498
REMARK  203  A    between atoms: _498  and  _499
REMARK  204  A    between atoms: _498  and  _501
REMARK  205  A    between atoms: _501  and  _502
REMARK  206  A    between atoms: _502  and  _503
REMARK  207  A    between atoms: _506  and  _508
REMARK  208  A    between atoms: _508  and  _509
REMARK  209  A    between atoms: _508  and  _511
REMARK  210  A    between atoms: _511  and  _512
REMARK  211  A    between atoms: _515  and  _517
REMARK  212  A    between atoms: _517  and  _518
REMARK  213  A    between atoms: _517  and  _520
REMARK  214  A    between atoms: _520  and  _521
REMARK  215  A    between atoms: _521  and  _522
REMARK  216  A    between atoms: _522  and  _523
REMARK  217  A    between atoms: _532  and  _534
REMARK  218  A    between atoms: _534  and  _535
REMARK  219  A    between atoms: _534  and  _537
REMARK  220  A    between atoms: _537  and  _538
REMARK  221  A    between atoms: _543  and  _545
REMARK  222  A    between atoms: _545  and  _546
REMARK  223  A    between atoms: _545  and  _548
REMARK  224  A    between atoms: _548  and  _549
REMARK  225  A    between atoms: _552  and  _554
REMARK  226  A    between atoms: _554  and  _555
REMARK  227  A    between atoms: _554  and  _557
REMARK  228  A    between atoms: _557  and  _558
REMARK  229  A    between atoms: _563  and  _565
REMARK  230  A    between atoms: _565  and  _566
REMARK  231  A    between atoms: _565  and  _568
REMARK  232  A    between atoms: _568  and  _569
REMARK  233  A    between atoms: _569  and  _570
REMARK  234  A    between atoms: _570  and  _571
REMARK  235  A    between atoms: _580  and  _582
REMARK  236  A    between atoms: _582  and  _583
REMARK  237  A    between atoms: _582  and  _585
REMARK  238  A    between atoms: _585  and  _586
REMARK  239  A    between atoms: _586  and  _587
REMARK  240  A    between atoms: _589  and  _591
REMARK  241  A    between atoms: _591  and  _592
REMARK  242  A    between atoms: _591  and  _594
REMARK  243  A    between atoms: _594  and  _595
REMARK  244  A    between atoms: _595  and  _596
REMARK  245  A    between atoms: _598  and  _600
REMARK  246  A    between atoms: _600  and  _601
REMARK  247  A    between atoms: _600  and  _603
REMARK  248  A    between atoms: _603  and  _604
REMARK  249  A    between atoms: _604  and  _605
REMARK  250  A    between atoms: _605  and  _606
REMARK  251  A    between atoms: _606  and  _607
REMARK  252  A    between atoms: _611  and  _613
REMARK  253  A    between atoms: _613  and  _614
REMARK  254  A    between atoms: _613  and  _616
REMARK  255  A    between atoms: _616  and  _617
REMARK                            x       y       z     vdW  Elec       q    Type
REMARK                         _______ _______ _______ _____ _____    ______ ____
ROOT
ATOM      1  CA  MET A   1      51.466  18.967  17.088  0.00  0.00    +0.134 C 
ENDROOT
BRANCH   1   2
ATOM      2  N   MET A   1      50.526  17.914  17.464  0.00  0.00    -0.239 NA
ATOM      3  H   MET A   1      50.875  17.028  17.881  0.00  0.00    +0.142 HD
ENDBRANCH   1   2
BRANCH   1   4
ATOM      4  C   MET A   1      51.654  19.104  15.583  0.00  0.00    +0.224 C 
ATOM      5  O   MET A   1      51.893  20.195  15.070  0.00  0.00    -0.287 OA
ENDBRANCH   1   4
BRANCH   1   6
ATOM      6  CB  MET A   1      52.827  18.733  17.757  0.00  0.00    +0.037 C 
BRANCH   6   7
ATOM      7  CG  MET A   1      52.755  18.781  19.277  0.00  0.00    +0.059 C 
BRANCH   7   8
ATOM      8  SD  MET A   1      54.388  18.778  20.037  0.00  0.00    -0.139 S 
ATOM      9  CE  MET A   1      54.842  17.145  19.773  0.00  0.00    +0.069 C 
ENDBRANCH   7   8
ENDBRANCH   6   7
ENDBRANCH   1   6
TORSDOF 5
REMARK  Name = ../refined-set-2016/1x8t/1x8t_pocket.pdb
REMARK  255 active torsions:
REMARK  status: ('A' for Active; 'I' for Inactive)
REMARK    1  A    between atoms: _1  and  _3
REMARK    2  A    between atoms: _3  and  _4
REMARK    3  A    between atoms: _3  and  _6
REMARK    4  A    between atoms: _6  and  _7
REMARK    5  A    between atoms: _9  and  _11
REMARK    6  A    between atoms: _11  and  _12
REMARK    7  A    between atoms: _11  and  _14
REMARK    8  A    between atoms: _14  and  _15
REMARK    9  A    between atoms: _15  and  _16
REMARK   10  A    between atoms: _16  and  _17
REMARK   11  A    between atoms: _17  and  _18
REMARK   12  A    between atoms: _22  and  _24
REMARK   13  A    between atoms: _24  and  _25
REMARK   14  A    between atoms: _24  and  _27
REMARK   15  A    between atoms: _27  and  _28
REMARK   16  A    between atoms: _30  and  _32
REMARK   17  A    between atoms: _32  and  _33
REMARK   18  A    between atoms: _32  and  _35
REMARK   19  A    between atoms: _38  and  _40
REMARK   20  A    between atoms: _40  and  _41
REMARK   21  A    between atoms: _40  and  _43
REMARK   22  A    between atoms: _43  and  _44
REMARK   23  A    between atoms: _46  and  _48
REMARK   24  A    between atoms: _48  and  _49
REMARK   25  A    between atoms: _48  and  _51
REMARK   26  A    between atoms: _51  and  _52
REMARK   27  A    between atoms: _57  and  _59
REMARK   28  A    between atoms: _59  and  _60
REMARK   29  A    between atoms: _59  and  _62
REMARK   30  A    between atoms: _62  and  _63
REMARK   31  A    between atoms: _63  and  _64
REMARK   32  A    between atoms: _64  and  _65
REMARK   33  A    between atoms: _74  and  _76
REMARK   34  A    between atoms: _76  and  _77
REMARK   35  A    between atoms: _76  and  _79
REMARK   36  A    between atoms: _79  and  _80
REMARK   37  A    between atoms: _83  and  _85
REMARK   38  A    between atoms: _85  and  _86
REMARK   39  A    between atoms: _85  and  _88
REMARK   40  A    between atoms: _88  and  _89
REMARK   41  A    between atoms: _94  and  _96
REMARK   42  A    between atoms: _96  and  _97
REMARK   43  A    between atoms: _100  and  _102
REMARK   44  A    between atoms: _102  and  _103
REMARK   45  A    between atoms: _105  and  _107
REMARK   46  A    between atoms: _107  and  _108
REMARK   47  A    between atoms: _107  and  _110
REMARK   48  A    between atoms: _110  and  _111
REMARK   49  A    between atoms: _114  and  _116
REMARK   50  A    between atoms: _116  and  _117
REMARK   51  A    between atoms: _120  and  _122
REMARK   52  A    between atoms: _122  and  _123
REMARK   53  A    between atoms: _122  and  _125
REMARK   54  A    between atoms: _125  and  _126
REMARK   55  A    between atoms: _126  and  _127
REMARK   56  A    between atoms: _129  and  _131
REMARK   57  A    between atoms: _131  and  _132
REMARK   58  A    between atoms: _131  and  _134
REMARK   59  A    between atoms: _134  and  _135
REMARK   60  A    between atoms: _135  and  _136
REMARK   61  A    between atoms: _136  and  _137
REMARK   62  A    between atoms: _147  and  _148
REMARK   63  A    between atoms: _153  and  _155
REMARK   64  A    between atoms: _155  and  _156
REMARK   65  A    between atoms: _155  and  _158
REMARK   66  A    between atoms: _158  and  _159
REMARK   67  A    between atoms: _159  and  _160
REMARK   68  A    between atoms: _160  and  _161
REMARK   69  A    between atoms: _171  and  _172
REMARK   70  A    between atoms: _177  and  _179
REMARK   71  A    between atoms: _179  and  _180
REMARK   72  A    between atoms: _182  and  _184
REMARK   73  A    between atoms: _184  and  _185
REMARK   74  A    between atoms: _184  and  _187
REMARK   75  A    between atoms: _187  and  _188
REMARK   76  A    between atoms: _190  and  _192
REMARK   77  A    between atoms: _192  and  _193
REMARK   78  A    between atoms: _192  and  _195
REMARK   79  A    between atoms: _198  and  _200
REMARK   80  A    between atoms: _200  and  _201
REMARK   81  A    between atoms: _200  and  _203
REMARK   82  A    between atoms: _203  and  _204
REMARK   83  A    between atoms: _206  and  _208
REMARK   84  A    between atoms: _208  and  _209
REMARK   85  A    between atoms: _208  and  _211
REMARK   86  A    between atoms: _211  and  _212
REMARK   87  A    between atoms: _214  and  _216
REMARK   88  A    between atoms: _216  and  _217
REMARK   89  A    between atoms: _216  and  _219
REMARK   90  A    between atoms: _219  and  _220
REMARK   91  A    between atoms: _220  and  _221
REMARK   92  A    between atoms: _226  and  _228
REMARK   93  A    between atoms: _228  and  _229
REMARK   94  A    between atoms: _228  and  _231
REMARK   95  A    between atoms: _231  and  _232
REMARK   96  A    between atoms: _238  and  _240
REMARK   97  A    between atoms: _240  and  _241
REMARK   98  A    between atoms: _240  and  _243
REMARK   99  A    between atoms: _243  and  _244
REMARK  100  A    between atoms: _247  and  _249
REMARK  101  A    between atoms: _249  and  _250
REMARK  102  A    between atoms: _249  and  _252
REMARK  103  A    between atoms: _252  and  _253
REMARK  104  A    between atoms: _256  and  _258
REMARK  105  A    between atoms: _258  and  _259
REMARK  106  A    between atoms: _262  and  _264
REMARK  107  A    between atoms: _264  and  _265
REMARK  108  A    between atoms: _264  and  _267
REMARK  109  A    between atoms: _267  and  _268
REMARK  110  A    between atoms: _268  and  _269
REMARK  111  A    between atoms: _271  and  _273
REMARK  112  A    between atoms: _273  and  _274
REMARK  113  A    between atoms: _273  and  _276
REMARK  114  A    between atoms: _276  and  _277
REMARK  115  A    between atoms: _280  and  _282
REMARK  116  A    between atoms: _282  and  _283
REMARK  117  A    between atoms: _282  and  _285
REMARK  118  A    between atoms: _288  and  _290
REMARK  119  A    between atoms: _290  and  _291
REMARK  120  A    between atoms: _290  and  _293
REMARK  121  A    between atoms: _293  and  _294
REMARK  122  A    between atoms: _296  and  _298
REMARK  123  A    between atoms: _298  and  _299
REMARK  124  A    between atoms: _298  and  _301
REMARK  125  A    between atoms: _301  and  _302
REMARK  126  A    between atoms: _302  and  _303
REMARK  127  A    between atoms: _303  and  _304
REMARK  128  A    between atoms: _304  and  _305
REMARK  129  A    between atoms: _310  and  _311
REMARK  130  A    between atoms: _316  and  _318
REMARK  131  A    between atoms: _318  and  _319
REMARK  132  A    between atoms: _318  and  _321
REMARK  133  A    between atoms: _321  and  _322
REMARK  134  A    between atoms: _327  and  _328
REMARK  135  A    between atoms: _330  and  _332
REMARK  136  A    between atoms: _332  and  _333
REMARK  137  A    between atoms: _332  and  _335
REMARK  138  A    between atoms: _335  and  _336
REMARK  139  A    between atoms: _339  and  _341
REMARK  140  A    between atoms: _341  and  _342
REMARK  141  A    between atoms: _341  and  _344
REMARK  142  A    between atoms: _344  and  _345
REMARK  143  A    between atoms: _348  and  _350
REMARK  144  A    between atoms: _350  and  _351
REMARK  145  A    between atoms: _350  and  _353
REMARK  146  A    between atoms: _353  and  _354
REMARK  147  A    between atoms: _357  and  _359
REMARK  148  A    between atoms: _359  and  _360
REMARK  149  A    between atoms: _359  and  _362
REMARK  150  A    between atoms: _362  and  _363
REMARK  151  A    between atoms: _366  and  _368
REMARK  152  A    between atoms: _368  and  _369
REMARK  153  A    between atoms: _368  and  _371
REMARK  154  A    between atoms: _371  and  _372
REMARK  155  A    between atoms: _374  and  _376
REMARK  156  A    between atoms: _376  and  _377
REMARK  157  A    between atoms: _376  and  _379
REMARK  158  A    between atoms: _379  and  _380
REMARK  159  A    between atoms: _385  and  _386
REMARK  160  A    between atoms: _388  and  _390
REMARK  161  A    between atoms: _390  and  _391
REMARK  162  A    between atoms: _390  and  _393
REMARK  163  A    between atoms: _393  and  _394
REMARK  164  A    between atoms: _397  and  _399
REMARK  165  A    between atoms: _399  and  _400
REMARK  166  A    between atoms: _399  and  _402
REMARK  167  A    between atoms: _402  and  _403
REMARK  168  A    between atoms: _408  and  _410
REMARK  169  A    between atoms: _410  and  _411
REMARK  170  A    between atoms: _410  and  _413
REMARK  171  A    between atoms: _413  and  _414
REMARK  172  A    between atoms: _418  and  _419
REMARK  173  A    between atoms: _424  and  _426
REMARK  174  A    between atoms: _426  and  _427
REMARK  175  A    between atoms: _426  and  _429
REMARK  176  A    between atoms: _429  and  _430
REMARK  177  A    between atoms: _433  and  _435
REMARK  178  A    between atoms: _435  and  _436
REMARK  179  A    between atoms: _439  and  _441
REMARK  180  A    between atoms: _441  and  _442
REMARK  181  A    between atoms: _441  and  _444
REMARK  182  A    between atoms: _444  and  _445
REMARK  183  A    between atoms: _445  and  _446
REMARK  184  A    between atoms: _448  and  _450
REMARK  185  A    between atoms: _450  and  _451
REMARK  186  A    between atoms: _450  and  _453
REMARK  187  A    between atoms: _453  and  _454
REMARK  188  A    between atoms: _459  and  _461
REMARK  189  A    between atoms: _461  and  _462
REMARK  190  A    between atoms: _461  and  _464
REMARK  191  A    between atoms: _464  and  _465
REMARK  192  A    between atoms: _475  and  _477
REMARK  193  A    between atoms: _477  and  _478
REMARK  194  A    between atoms: _477  and  _480
REMARK  195  A    between atoms: _483  and  _485
REMARK  196  A    between atoms: _485  and  _486
REMARK  197  A    between atoms: _485  and  _488
REMARK  198  A    between atoms: _488  and  _489
REMARK  199  A    between atoms: _489  and  _490
REMARK  200  A    between atoms: _490  and  _491
REMARK  201  A    between atoms: _491  and  _492
REMARK  202  A    between atoms: _496  and  _498
REMARK  203  A    between atoms: _498  and  _499
REMARK  204  A    between atoms: _498  and  _501
REMARK  205  A    between atoms: _501  and  _502
REMARK  206  A    between atoms: _502  and  _503
REMARK  207  A    between atoms: _506  and  _508
REMARK  208  A    between atoms: _508  and  _509
REMARK  209  A    between atoms: _508  and  _511
REMARK  210  A    between atoms: _511  and  _512
REMARK  211  A    between atoms: _515  and  _517
REMARK  212  A    between atoms: _517  and  _518
REMARK  213  A    between atoms: _517  and  _520
REMARK  214  A    between atoms: _520  and  _521
REMARK  215  A    between atoms: _521  and  _522
REMARK  216  A    between atoms: _522  and  _523
REMARK  217  A    between atoms: _532  and  _534
REMARK  218  A    between atoms: _534  and  _535
REMARK  219  A    between atoms: _534  and  _537
REMARK  220  A    between atoms: _537  and  _538
REMARK  221  A    between atoms: _543  and  _545
REMARK  222  A    between atoms: _545  and  _546
REMARK  223  A    between atoms: _545  and  _548
REMARK  224  A    between atoms: _548  and  _549
REMARK  225  A    between atoms: _552  and  _554
REMARK  226  A    between atoms: _554  and  _555
REMARK  227  A    between atoms: _554  and  _557
REMARK  228  A    between atoms: _557  and  _558
REMARK  229  A    between atoms: _563  and  _565
REMARK  230  A    between atoms: _565  and  _566
REMARK  231  A    between atoms: _565  and  _568
REMARK  232  A    between atoms: _568  and  _569
REMARK  233  A    between atoms: _569  and  _570
REMARK  234  A    between atoms: _570  and  _571
REMARK  235  A    between atoms: _580  and  _582
REMARK  236  A    between atoms: _582  and  _583
REMARK  237  A    between atoms: _582  and  _585
REMARK  238  A    between atoms: _585  and  _586
REMARK  239  A    between atoms: _586  and  _587
REMARK  240  A    between atoms: _589  and  _591
REMARK  241  A    between atoms: _591  and  _592
REMARK  242  A    between atoms: _591  and  _594
REMARK  243  A    between atoms: _594  and  _595
REMARK  244  A    between atoms: _595  and  _596
REMARK  245  A    between atoms: _598  and  _600
REMARK  246  A    between atoms: _600  and  _601
REMARK  247  A    between atoms: _600  and  _603
REMARK  248  A    between atoms: _603  and  _604
REMARK  249  A    between atoms: _604  and  _605
REMARK  250  A    between atoms: _605  and  _606
REMARK  251  A    between atoms: _606  and  _607
REMARK  252  A    between atoms: _611  and  _613
REMARK  253  A    between atoms: _613  and  _614
REMARK  254  A    between atoms: _613  and  _616
REMARK  255  A    between atoms: _616  and  _617
REMARK                            x       y       z     vdW  Elec       q    Type
REMARK                         _______ _______ _______ _____ _____    ______ ____
ROOT
ATOM      1  CA  LYS A   4      46.129  12.136  29.781  0.00  0.00    +0.149 C 
ENDROOT
BRANCH   1   2
ATOM      2  C   LYS A   4      46.759  13.494  30.065  0.00  0.00    +0.244 C 
ATOM      3  N   PRO A   5      47.329  13.692  31.269  0.00  0.00    -0.272 N 
ATOM      4  CD  PRO A   5      47.384  12.796  32.438  0.00  0.00    +0.094 C 
ATOM      5  CG  PRO A   5      47.610  13.771  33.577  0.00  0.00    +0.024 C 
ATOM      6  CB  PRO A   5      48.566  14.752  32.958  0.00  0.00    +0.031 C 
ATOM      7  CA  PRO A   5      47.946  14.987  31.581  0.00  0.00    +0.152 C 
ATOM      8  O   LYS A   4      46.726  14.379  29.213  0.00  0.00    -0.273 OA
BRANCH   7   9
ATOM      9  C   PRO A   5      48.985  15.446  30.564  0.00  0.00    +0.241 C 
ATOM     10  O   PRO A   5      49.187  16.645  30.376  0.00  0.00    -0.273 OA
ATOM     11  N   TYR A   6      49.656  14.504  29.912  0.00  0.00    -0.297 N 
ATOM     12  H   TYR A   6      49.463  13.499  30.097  0.00  0.00    +0.150 HD
BRANCH  11  13
ATOM     13  CA  TYR A   6      50.667  14.892  28.932  0.00  0.00    +0.153 C 
BRANCH  13  14
ATOM     14  C   TYR A   6      50.022  15.519  27.704  0.00  0.00    +0.241 C 
ATOM     15  N   ILE A   7      48.769  15.171  27.452  0.00  0.00    -0.298 N 
ATOM     16  H   ILE A   7      48.289  14.475  28.057  0.00  0.00    +0.150 HD
ATOM     17  O   TYR A   6      50.640  16.310  26.998  0.00  0.00    -0.273 OA
BRANCH  15  18
ATOM     18  CA  ILE A   7      48.067  15.768  26.324  0.00  0.00    +0.137 C 
BRANCH  18  19
ATOM     19  CB  ILE A   7      46.720  15.078  26.089  0.00  0.00    +0.026 C 
ATOM     20  CG2 ILE A   7      45.950  15.792  24.971  0.00  0.00    +0.002 C 
BRANCH  19  21
ATOM     21  CG1 ILE A   7      46.963  13.597  25.788  0.00  0.00    +0.002 C 
ATOM     22  CD1 ILE A   7      47.915  13.338  24.614  0.00  0.00    +0.000 C 
ENDBRANCH  19  21
ENDBRANCH  18  19
BRANCH  18  23
ATOM     23  C   ILE A   7      47.843  17.245  26.639  0.00  0.00    +0.227 C 
ATOM     24  O   ILE A   7      47.924  18.095  25.760  0.00  0.00    -0.286 OA
ENDBRANCH  18  23
ENDBRANCH  15  18
ENDBRANCH  13  14
BRANCH  13  25
ATOM     25  CB  TYR A   6      51.528  13.692  28.541  0.00  0.00    +0.055 C 
BRANCH  25  26
ATOM     26  CG  TYR A   6      52.425  13.265  29.673  0.00  0.00    -0.020 A 
ATOM     27  CD2 TYR A   6      52.044  12.253  30.551  0.00  0.00    -0.001 A 
ATOM     28  CE2 TYR A   6      52.861  11.880  31.619  0.00  0.00    +0.036 A 
ATOM     29  CZ  TYR A   6      54.071  12.533  31.808  0.00  0.00    +0.134 A 
ATOM     30  CE1 TYR A   6      54.467  13.536  30.949  0.00  0.00    +0.036 A 
ATOM     31  CD1 TYR A   6      53.647  13.900  29.888  0.00  0.00    -0.001 A 
BRANCH  29  32
ATOM     32  OH  TYR A   6      54.879  12.200  32.870  0.00  0.00    -0.506 OA
ATOM     33  HH  TYR A   6      54.458  11.468  33.387  0.00  0.00    +0.292 HD
ENDBRANCH  29  32
ENDBRANCH  25  26
ENDBRANCH  13  25
ENDBRANCH  11  13
ENDBRANCH   7   9
ENDBRANCH   1   2
BRANCH   1  35
ATOM     34  C   SER A   3      48.146  10.802  30.020  0.00  0.00    +0.243 C 
ATOM     35  N   LYS A   4      46.855  10.976  30.274  0.00  0.00    -0.297 N 
ATOM     36  H   LYS A   4      46.350  10.265  30.840  0.00  0.00    +0.150 HD
ATOM     37  O   SER A   3      48.823  11.614  29.391  0.00  0.00    -0.273 OA
BRANCH  34  38
ATOM     38  CA  SER A   3      48.767   9.528  30.571  0.00  0.00    +0.178 C 
BRANCH  38  40
ATOM     39  C   VAL A   2      47.328   8.115  29.211  0.00  0.00    +0.241 C 
ATOM     40  N   SER A   3      47.871   8.393  30.391  0.00  0.00    -0.295 N 
ATOM     41  H   SER A   3      47.651   7.786  31.206  0.00  0.00    +0.150 HD
ATOM     42  O   VAL A   2      47.507   8.807  28.204  0.00  0.00    -0.273 OA
BRANCH  39  43
ATOM     43  CA  VAL A   2      46.433   6.883  29.162  0.00  0.00    +0.148 C 
BRANCH  43  46
ATOM     44  C   LEU A   1      44.376   7.436  28.032  0.00  0.00    +0.238 C 
ATOM     45  O   LEU A   1      43.886   7.876  29.074  0.00  0.00    -0.274 OA
ATOM     46  N   VAL A   2      45.599   6.926  27.973  0.00  0.00    -0.297 N 
ATOM     47  H   VAL A   2      45.963   6.555  27.072  0.00  0.00    +0.150 HD
BRANCH  44  48
ATOM     48  CA  LEU A   1      43.576   7.432  26.741  0.00  0.00    +0.145 C 
BRANCH  48  49
ATOM     49  N   LEU A   1      42.452   6.528  26.960  0.00  0.00    -0.238 NA
ATOM     50  H   LEU A   1      41.826   6.693  27.774  0.00  0.00    +0.142 HD
ENDBRANCH  48  49
BRANCH  48  51
ATOM     51  CB  LEU A   1      43.092   8.852  26.432  0.00  0.00    +0.026 C 
BRANCH  51  52
ATOM     52  CG  LEU A   1      44.210   9.895  26.301  0.00  0.00    +0.002 C 
ATOM     53  CD2 LEU A   1      43.604  11.241  25.972  0.00  0.00    +0.000 C 
ATOM     54  CD1 LEU A   1      45.214   9.471  25.225  0.00  0.00    +0.000 C 
ENDBRANCH  51  52
ENDBRANCH  48  51
ENDBRANCH  44  48
ENDBRANCH  43  46
BRANCH  43  55
ATOM     55  CB  VAL A   2      47.314   5.614  29.190  0.00  0.00    +0.027 C 
ATOM     56  CG2 VAL A   2      46.437   4.370  29.243  0.00  0.00    +0.002 C 
ATOM     57  CG1 VAL A   2      48.238   5.584  27.975  0.00  0.00    +0.002 C 
ENDBRANCH  43  55
ENDBRANCH  39  43
ENDBRANCH  38  40
BRANCH  38  58
ATOM     58  CB  SER A   3      50.095   9.254  29.863  0.00  0.00    +0.166 C 
BRANCH  58  59
ATOM     59  OG  SER A   3      50.753   8.141  30.440  0.00  0.00    -0.380 OA
ATOM     60  H   SER A   3      51.608   7.983  29.967  0.00  0.00    +0.211 HD
ENDBRANCH  58  59
ENDBRANCH  38  58
ENDBRANCH  34  38
ENDBRANCH   1  35
BRANCH   1  61
ATOM     61  CB  LYS A   4      44.697  12.123  30.315  0.00  0.00    +0.029 C 
BRANCH  61  62
ATOM     62  CG  LYS A   4      43.860  13.279  29.811  0.00  0.00    +0.000 C 
BRANCH  62  63
ATOM     63  CD  LYS A   4      42.367  12.965  29.856  0.00  0.00    -0.024 C 
BRANCH  63  64
ATOM     64  CE  LYS A   4      41.856  12.803  31.277  0.00  0.00    -0.086 C 
BRANCH  64  65
ATOM     65  NZ  LYS A   4      40.366  12.697  31.302  0.00  0.00    +0.380 N 
ATOM     66  HZ1 LYS A   4      40.044  12.587  32.285  0.00  0.00    -0.089 HD
ATOM     67  HZ2 LYS A   4      39.951  13.559  30.894  0.00  0.00    -0.089 HD
ATOM     68  HZ3 LYS A   4      40.069  11.871  30.744  0.00  0.00    -0.089 HD
ENDBRANCH  64  65
ENDBRANCH  63  64
ENDBRANCH  62  63
ENDBRANCH  61  62
ENDBRANCH   1  61
TORSDOF 28
REMARK  Name = ../refined-set-2016/1x8t/1x8t_pocket.pdb
REMARK  255 active torsions:
REMARK  status: ('A' for Active; 'I' for Inactive)
REMARK    1  A    between atoms: _1  and  _3
REMARK    2  A    between atoms: _3  and  _4
REMARK    3  A    between atoms: _3  and  _6
REMARK    4  A    between atoms: _6  and  _7
REMARK    5  A    between atoms: _9  and  _11
REMARK    6  A    between atoms: _11  and  _12
REMARK    7  A    between atoms: _11  and  _14
REMARK    8  A    between atoms: _14  and  _15
REMARK    9  A    between atoms: _15  and  _16
REMARK   10  A    between atoms: _16  and  _17
REMARK   11  A    between atoms: _17  and  _18
REMARK   12  A    between atoms: _22  and  _24
REMARK   13  A    between atoms: _24  and  _25
REMARK   14  A    between atoms: _24  and  _27
REMARK   15  A    between atoms: _27  and  _28
REMARK   16  A    between atoms: _30  and  _32
REMARK   17  A    between atoms: _32  and  _33
REMARK   18  A    between atoms: _32  and  _35
REMARK   19  A    between atoms: _38  and  _40
REMARK   20  A    between atoms: _40  and  _41
REMARK   21  A    between atoms: _40  and  _43
REMARK   22  A    between atoms: _43  and  _44
REMARK   23  A    between atoms: _46  and  _48
REMARK   24  A    between atoms: _48  and  _49
REMARK   25  A    between atoms: _48  and  _51
REMARK   26  A    between atoms: _51  and  _52
REMARK   27  A    between atoms: _57  and  _59
REMARK   28  A    between atoms: _59  and  _60
REMARK   29  A    between atoms: _59  and  _62
REMARK   30  A    between atoms: _62  and  _63
REMARK   31  A    between atoms: _63  and  _64
REMARK   32  A    between atoms: _64  and  _65
REMARK   33  A    between atoms: _74  and  _76
REMARK   34  A    between atoms: _76  and  _77
REMARK   35  A    between atoms: _76  and  _79
REMARK   36  A    between atoms: _79  and  _80
REMARK   37  A    between atoms: _83  and  _85
REMARK   38  A    between atoms: _85  and  _86
REMARK   39  A    between atoms: _85  and  _88
REMARK   40  A    between atoms: _88  and  _89
REMARK   41  A    between atoms: _94  and  _96
REMARK   42  A    between atoms: _96  and  _97
REMARK   43  A    between atoms: _100  and  _102
REMARK   44  A    between atoms: _102  and  _103
REMARK   45  A    between atoms: _105  and  _107
REMARK   46  A    between atoms: _107  and  _108
REMARK   47  A    between atoms: _107  and  _110
REMARK   48  A    between atoms: _110  and  _111
REMARK   49  A    between atoms: _114  and  _116
REMARK   50  A    between atoms: _116  and  _117
REMARK   51  A    between atoms: _120  and  _122
REMARK   52  A    between atoms: _122  and  _123
REMARK   53  A    between atoms: _122  and  _125
REMARK   54  A    between atoms: _125  and  _126
REMARK   55  A    between atoms: _126  and  _127
REMARK   56  A    between atoms: _129  and  _131
REMARK   57  A    between atoms: _131  and  _132
REMARK   58  A    between atoms: _131  and  _134
REMARK   59  A    between atoms: _134  and  _135
REMARK   60  A    between atoms: _135  and  _136
REMARK   61  A    between atoms: _136  and  _137
REMARK   62  A    between atoms: _147  and  _148
REMARK   63  A    between atoms: _153  and  _155
REMARK   64  A    between atoms: _155  and  _156
REMARK   65  A    between atoms: _155  and  _158
REMARK   66  A    between atoms: _158  and  _159
REMARK   67  A    between atoms: _159  and  _160
REMARK   68  A    between atoms: _160  and  _161
REMARK   69  A    between atoms: _171  and  _172
REMARK   70  A    between atoms: _177  and  _179
REMARK   71  A    between atoms: _179  and  _180
REMARK   72  A    between atoms: _182  and  _184
REMARK   73  A    between atoms: _184  and  _185
REMARK   74  A    between atoms: _184  and  _187
REMARK   75  A    between atoms: _187  and  _188
REMARK   76  A    between atoms: _190  and  _192
REMARK   77  A    between atoms: _192  and  _193
REMARK   78  A    between atoms: _192  and  _195
REMARK   79  A    between atoms: _198  and  _200
REMARK   80  A    between atoms: _200  and  _201
REMARK   81  A    between atoms: _200  and  _203
REMARK   82  A    between atoms: _203  and  _204
REMARK   83  A    between atoms: _206  and  _208
REMARK   84  A    between atoms: _208  and  _209
REMARK   85  A    between atoms: _208  and  _211
REMARK   86  A    between atoms: _211  and  _212
REMARK   87  A    between atoms: _214  and  _216
REMARK   88  A    between atoms: _216  and  _217
REMARK   89  A    between atoms: _216  and  _219
REMARK   90  A    between atoms: _219  and  _220
REMARK   91  A    between atoms: _220  and  _221
REMARK   92  A    between atoms: _226  and  _228
REMARK   93  A    between atoms: _228  and  _229
REMARK   94  A    between atoms: _228  and  _231
REMARK   95  A    between atoms: _231  and  _232
REMARK   96  A    between atoms: _238  and  _240
REMARK   97  A    between atoms: _240  and  _241
REMARK   98  A    between atoms: _240  and  _243
REMARK   99  A    between atoms: _243  and  _244
REMARK  100  A    between atoms: _247  and  _249
REMARK  101  A    between atoms: _249  and  _250
REMARK  102  A    between atoms: _249  and  _252
REMARK  103  A    between atoms: _252  and  _253
REMARK  104  A    between atoms: _256  and  _258
REMARK  105  A    between atoms: _258  and  _259
REMARK  106  A    between atoms: _262  and  _264
REMARK  107  A    between atoms: _264  and  _265
REMARK  108  A    between atoms: _264  and  _267
REMARK  109  A    between atoms: _267  and  _268
REMARK  110  A    between atoms: _268  and  _269
REMARK  111  A    between atoms: _271  and  _273
REMARK  112  A    between atoms: _273  and  _274
REMARK  113  A    between atoms: _273  and  _276
REMARK  114  A    between atoms: _276  and  _277
REMARK  115  A    between atoms: _280  and  _282
REMARK  116  A    between atoms: _282  and  _283
REMARK  117  A    between atoms: _282  and  _285
REMARK  118  A    between atoms: _288  and  _290
REMARK  119  A    between atoms: _290  and  _291
REMARK  120  A    between atoms: _290  and  _293
REMARK  121  A    between atoms: _293  and  _294
REMARK  122  A    between atoms: _296  and  _298
REMARK  123  A    between atoms: _298  and  _299
REMARK  124  A    between atoms: _298  and  _301
REMARK  125  A    between atoms: _301  and  _302
REMARK  126  A    between atoms: _302  and  _303
REMARK  127  A    between atoms: _303  and  _304
REMARK  128  A    between atoms: _304  and  _305
REMARK  129  A    between atoms: _310  and  _311
REMARK  130  A    between atoms: _316  and  _318
REMARK  131  A    between atoms: _318  and  _319
REMARK  132  A    between atoms: _318  and  _321
REMARK  133  A    between atoms: _321  and  _322
REMARK  134  A    between atoms: _327  and  _328
REMARK  135  A    between atoms: _330  and  _332
REMARK  136  A    between atoms: _332  and  _333
REMARK  137  A    between atoms: _332  and  _335
REMARK  138  A    between atoms: _335  and  _336
REMARK  139  A    between atoms: _339  and  _341
REMARK  140  A    between atoms: _341  and  _342
REMARK  141  A    between atoms: _341  and  _344
REMARK  142  A    between atoms: _344  and  _345
REMARK  143  A    between atoms: _348  and  _350
REMARK  144  A    between atoms: _350  and  _351
REMARK  145  A    between atoms: _350  and  _353
REMARK  146  A    between atoms: _353  and  _354
REMARK  147  A    between atoms: _357  and  _359
REMARK  148  A    between atoms: _359  and  _360
REMARK  149  A    between atoms: _359  and  _362
REMARK  150  A    between atoms: _362  and  _363
REMARK  151  A    between atoms: _366  and  _368
REMARK  152  A    between atoms: _368  and  _369
REMARK  153  A    between atoms: _368  and  _371
REMARK  154  A    between atoms: _371  and  _372
REMARK  155  A    between atoms: _374  and  _376
REMARK  156  A    between atoms: _376  and  _377
REMARK  157  A    between atoms: _376  and  _379
REMARK  158  A    between atoms: _379  and  _380
REMARK  159  A    between atoms: _385  and  _386
REMARK  160  A    between atoms: _388  and  _390
REMARK  161  A    between atoms: _390  and  _391
REMARK  162  A    between atoms: _390  and  _393
REMARK  163  A    between atoms: _393  and  _394
REMARK  164  A    between atoms: _397  and  _399
REMARK  165  A    between atoms: _399  and  _400
REMARK  166  A    between atoms: _399  and  _402
REMARK  167  A    between atoms: _402  and  _403
REMARK  168  A    between atoms: _408  and  _410
REMARK  169  A    between atoms: _410  and  _411
REMARK  170  A    between atoms: _410  and  _413
REMARK  171  A    between atoms: _413  and  _414
REMARK  172  A    between atoms: _418  and  _419
REMARK  173  A    between atoms: _424  and  _426
REMARK  174  A    between atoms: _426  and  _427
REMARK  175  A    between atoms: _426  and  _429
REMARK  176  A    between atoms: _429  and  _430
REMARK  177  A    between atoms: _433  and  _435
REMARK  178  A    between atoms: _435  and  _436
REMARK  179  A    between atoms: _439  and  _441
REMARK  180  A    between atoms: _441  and  _442
REMARK  181  A    between atoms: _441  and  _444
REMARK  182  A    between atoms: _444  and  _445
REMARK  183  A    between atoms: _445  and  _446
REMARK  184  A    between atoms: _448  and  _450
REMARK  185  A    between atoms: _450  and  _451
REMARK  186  A    between atoms: _450  and  _453
REMARK  187  A    between atoms: _453  and  _454
REMARK  188  A    between atoms: _459  and  _461
REMARK  189  A    between atoms: _461  and  _462
REMARK  190  A    between atoms: _461  and  _464
REMARK  191  A    between atoms: _464  and  _465
REMARK  192  A    between atoms: _475  and  _477
REMARK  193  A    between atoms: _477  and  _478
REMARK  194  A    between atoms: _477  and  _480
REMARK  195  A    between atoms: _483  and  _485
REMARK  196  A    between atoms: _485  and  _486
REMARK  197  A    between atoms: _485  and  _488
REMARK  198  A    between atoms: _488  and  _489
REMARK  199  A    between atoms: _489  and  _490
REMARK  200  A    between atoms: _490  and  _491
REMARK  201  A    between atoms: _491  and  _492
REMARK  202  A    between atoms: _496  and  _498
REMARK  203  A    between atoms: _498  and  _499
REMARK  204  A    between atoms: _498  and  _501
REMARK  205  A    between atoms: _501  and  _502
REMARK  206  A    between atoms: _502  and  _503
REMARK  207  A    between atoms: _506  and  _508
REMARK  208  A    between atoms: _508  and  _509
REMARK  209  A    between atoms: _508  and  _511
REMARK  210  A    between atoms: _511  and  _512
REMARK  211  A    between atoms: _515  and  _517
REMARK  212  A    between atoms: _517  and  _518
REMARK  213  A    between atoms: _517  and  _520
REMARK  214  A    between atoms: _520  and  _521
REMARK  215  A    between atoms: _521  and  _522
REMARK  216  A    between atoms: _522  and  _523
REMARK  217  A    between atoms: _532  and  _534
REMARK  218  A    between atoms: _534  and  _535
REMARK  219  A    between atoms: _534  and  _537
REMARK  220  A    between atoms: _537  and  _538
REMARK  221  A    between atoms: _543  and  _545
REMARK  222  A    between atoms: _545  and  _546
REMARK  223  A    between atoms: _545  and  _548
REMARK  224  A    between atoms: _548  and  _549
REMARK  225  A    between atoms: _552  and  _554
REMARK  226  A    between atoms: _554  and  _555
REMARK  227  A    between atoms: _554  and  _557
REMARK  228  A    between atoms: _557  and  _558
REMARK  229  A    between atoms: _563  and  _565
REMARK  230  A    between atoms: _565  and  _566
REMARK  231  A    between atoms: _565  and  _568
REMARK  232  A    between atoms: _568  and  _569
REMARK  233  A    between atoms: _569  and  _570
REMARK  234  A    between atoms: _570  and  _571
REMARK  235  A    between atoms: _580  and  _582
REMARK  236  A    between atoms: _582  and  _583
REMARK  237  A    between atoms: _582  and  _585
REMARK  238  A    between atoms: _585  and  _586
REMARK  239  A    between atoms: _586  and  _587
REMARK  240  A    between atoms: _589  and  _591
REMARK  241  A    between atoms: _591  and  _592
REMARK  242  A    between atoms: _591  and  _594
REMARK  243  A    between atoms: _594  and  _595
REMARK  244  A    between atoms: _595  and  _596
REMARK  245  A    between atoms: _598  and  _600
REMARK  246  A    between atoms: _600  and  _601
REMARK  247  A    between atoms: _600  and  _603
REMARK  248  A    between atoms: _603  and  _604
REMARK  249  A    between atoms: _604  and  _605
REMARK  250  A    between atoms: _605  and  _606
REMARK  251  A    between atoms: _606  and  _607
REMARK  252  A    between atoms: _611  and  _613
REMARK  253  A    between atoms: _613  and  _614
REMARK  254  A    between atoms: _613  and  _616
REMARK  255  A    between atoms: _616  and  _617
REMARK                            x       y       z     vdW  Elec       q    Type
REMARK                         _______ _______ _______ _____ _____    ______ ____
ROOT
ATOM      1  C   ILE A   1      51.203  20.197  26.774  0.00  0.00    +0.238 C 
ATOM      2  O   ILE A   1      51.521  21.329  26.413  0.00  0.00    -0.274 OA
ATOM      3  N   THR A   2      50.956  19.207  25.926  0.00  0.00    -0.296 N 
ATOM      4  H   THR A   2      50.701  18.273  26.305  0.00  0.00    +0.150 HD
ENDROOT
BRANCH   1   5
ATOM      5  CA  ILE A   1      51.071  19.841  28.254  0.00  0.00    +0.145 C 
BRANCH   5   6
ATOM      6  N   ILE A   1      49.796  19.150  28.433  0.00  0.00    -0.238 NA
ATOM      7  H   ILE A   1      49.782  18.178  28.803  0.00  0.00    +0.142 HD
ENDBRANCH   5   6
BRANCH   5   8
ATOM      8  CB  ILE A   1      52.271  18.940  28.649  0.00  0.00    +0.025 C 
ATOM      9  CG2 ILE A   1      53.586  19.673  28.356  0.00  0.00    +0.002 C 
BRANCH   8  10
ATOM     10  CG1 ILE A   1      52.175  18.569  30.135  0.00  0.00    +0.002 C 
ATOM     11  CD1 ILE A   1      53.286  17.630  30.618  0.00  0.00    +0.000 C 
ENDBRANCH   8  10
ENDBRANCH   5   8
ENDBRANCH   1   5
BRANCH   3  12
ATOM     12  CA  THR A   2      51.030  19.384  24.485  0.00  0.00    +0.164 C 
BRANCH  12  13
ATOM     13  C   THR A   2      50.140  20.531  24.024  0.00  0.00    +0.229 C 
ATOM     14  O   THR A   2      50.599  21.428  23.328  0.00  0.00    -0.286 OA
ENDBRANCH  12  13
BRANCH  12  15
ATOM     15  CB  THR A   2      50.623  18.087  23.769  0.00  0.00    +0.136 C 
ATOM     16  CG2 THR A   2      50.619  18.272  22.246  0.00  0.00    +0.034 C 
BRANCH  15  17
ATOM     17  OG1 THR A   2      51.564  17.059  24.106  0.00  0.00    -0.382 OA
ATOM     18  HG1 THR A   2      51.310  16.218  23.649  0.00  0.00    +0.210 HD
ENDBRANCH  15  17
ENDBRANCH  12  15
ENDBRANCH   3  12
TORSDOF 8
REMARK  Name = ../refined-set-2016/1x8t/1x8t_pocket.pdb
REMARK  255 active torsions:
REMARK  status: ('A' for Active; 'I' for Inactive)
REMARK    1  A    between atoms: _1  and  _3
REMARK    2  A    between atoms: _3  and  _4
REMARK    3  A    between atoms: _3  and  _6
REMARK    4  A    between atoms: _6  and  _7
REMARK    5  A    between atoms: _9  and  _11
REMARK    6  A    between atoms: _11  and  _12
REMARK    7  A    between atoms: _11  and  _14
REMARK    8  A    between atoms: _14  and  _15
REMARK    9  A    between atoms: _15  and  _16
REMARK   10  A    between atoms: _16  and  _17
REMARK   11  A    between atoms: _17  and  _18
REMARK   12  A    between atoms: _22  and  _24
REMARK   13  A    between atoms: _24  and  _25
REMARK   14  A    between atoms: _24  and  _27
REMARK   15  A    between atoms: _27  and  _28
REMARK   16  A    between atoms: _30  and  _32
REMARK   17  A    between atoms: _32  and  _33
REMARK   18  A    between atoms: _32  and  _35
REMARK   19  A    between atoms: _38  and  _40
REMARK   20  A    between atoms: _40  and  _41
REMARK   21  A    between atoms: _40  and  _43
REMARK   22  A    between atoms: _43  and  _44
REMARK   23  A    between atoms: _46  and  _48
REMARK   24  A    between atoms: _48  and  _49
REMARK   25  A    between atoms: _48  and  _51
REMARK   26  A    between atoms: _51  and  _52
REMARK   27  A    between atoms: _57  and  _59
REMARK   28  A    between atoms: _59  and  _60
REMARK   29  A    between atoms: _59  and  _62
REMARK   30  A    between atoms: _62  and  _63
REMARK   31  A    between atoms: _63  and  _64
REMARK   32  A    between atoms: _64  and  _65
REMARK   33  A    between atoms: _74  and  _76
REMARK   34  A    between atoms: _76  and  _77
REMARK   35  A    between atoms: _76  and  _79
REMARK   36  A    between atoms: _79  and  _80
REMARK   37  A    between atoms: _83  and  _85
REMARK   38  A    between atoms: _85  and  _86
REMARK   39  A    between atoms: _85  and  _88
REMARK   40  A    between atoms: _88  and  _89
REMARK   41  A    between atoms: _94  and  _96
REMARK   42  A    between atoms: _96  and  _97
REMARK   43  A    between atoms: _100  and  _102
REMARK   44  A    between atoms: _102  and  _103
REMARK   45  A    between atoms: _105  and  _107
REMARK   46  A    between atoms: _107  and  _108
REMARK   47  A    between atoms: _107  and  _110
REMARK   48  A    between atoms: _110  and  _111
REMARK   49  A    between atoms: _114  and  _116
REMARK   50  A    between atoms: _116  and  _117
REMARK   51  A    between atoms: _120  and  _122
REMARK   52  A    between atoms: _122  and  _123
REMARK   53  A    between atoms: _122  and  _125
REMARK   54  A    between atoms: _125  and  _126
REMARK   55  A    between atoms: _126  and  _127
REMARK   56  A    between atoms: _129  and  _131
REMARK   57  A    between atoms: _131  and  _132
REMARK   58  A    between atoms: _131  and  _134
REMARK   59  A    between atoms: _134  and  _135
REMARK   60  A    between atoms: _135  and  _136
REMARK   61  A    between atoms: _136  and  _137
REMARK   62  A    between atoms: _147  and  _148
REMARK   63  A    between atoms: _153  and  _155
REMARK   64  A    between atoms: _155  and  _156
REMARK   65  A    between atoms: _155  and  _158
REMARK   66  A    between atoms: _158  and  _159
REMARK   67  A    between atoms: _159  and  _160
REMARK   68  A    between atoms: _160  and  _161
REMARK   69  A    between atoms: _171  and  _172
REMARK   70  A    between atoms: _177  and  _179
REMARK   71  A    between atoms: _179  and  _180
REMARK   72  A    between atoms: _182  and  _184
REMARK   73  A    between atoms: _184  and  _185
REMARK   74  A    between atoms: _184  and  _187
REMARK   75  A    between atoms: _187  and  _188
REMARK   76  A    between atoms: _190  and  _192
REMARK   77  A    between atoms: _192  and  _193
REMARK   78  A    between atoms: _192  and  _195
REMARK   79  A    between atoms: _198  and  _200
REMARK   80  A    between atoms: _200  and  _201
REMARK   81  A    between atoms: _200  and  _203
REMARK   82  A    between atoms: _203  and  _204
REMARK   83  A    between atoms: _206  and  _208
REMARK   84  A    between atoms: _208  and  _209
REMARK   85  A    between atoms: _208  and  _211
REMARK   86  A    between atoms: _211  and  _212
REMARK   87  A    between atoms: _214  and  _216
REMARK   88  A    between atoms: _216  and  _217
REMARK   89  A    between atoms: _216  and  _219
REMARK   90  A    between atoms: _219  and  _220
REMARK   91  A    between atoms: _220  and  _221
REMARK   92  A    between atoms: _226  and  _228
REMARK   93  A    between atoms: _228  and  _229
REMARK   94  A    between atoms: _228  and  _231
REMARK   95  A    between atoms: _231  and  _232
REMARK   96  A    between atoms: _238  and  _240
REMARK   97  A    between atoms: _240  and  _241
REMARK   98  A    between atoms: _240  and  _243
REMARK   99  A    between atoms: _243  and  _244
REMARK  100  A    between atoms: _247  and  _249
REMARK  101  A    between atoms: _249  and  _250
REMARK  102  A    between atoms: _249  and  _252
REMARK  103  A    between atoms: _252  and  _253
REMARK  104  A    between atoms: _256  and  _258
REMARK  105  A    between atoms: _258  and  _259
REMARK  106  A    between atoms: _262  and  _264
REMARK  107  A    between atoms: _264  and  _265
REMARK  108  A    between atoms: _264  and  _267
REMARK  109  A    between atoms: _267  and  _268
REMARK  110  A    between atoms: _268  and  _269
REMARK  111  A    between atoms: _271  and  _273
REMARK  112  A    between atoms: _273  and  _274
REMARK  113  A    between atoms: _273  and  _276
REMARK  114  A    between atoms: _276  and  _277
REMARK  115  A    between atoms: _280  and  _282
REMARK  116  A    between atoms: _282  and  _283
REMARK  117  A    between atoms: _282  and  _285
REMARK  118  A    between atoms: _288  and  _290
REMARK  119  A    between atoms: _290  and  _291
REMARK  120  A    between atoms: _290  and  _293
REMARK  121  A    between atoms: _293  and  _294
REMARK  122  A    between atoms: _296  and  _298
REMARK  123  A    between atoms: _298  and  _299
REMARK  124  A    between atoms: _298  and  _301
REMARK  125  A    between atoms: _301  and  _302
REMARK  126  A    between atoms: _302  and  _303
REMARK  127  A    between atoms: _303  and  _304
REMARK  128  A    between atoms: _304  and  _305
REMARK  129  A    between atoms: _310  and  _311
REMARK  130  A    between atoms: _316  and  _318
REMARK  131  A    between atoms: _318  and  _319
REMARK  132  A    between atoms: _318  and  _321
REMARK  133  A    between atoms: _321  and  _322
REMARK  134  A    between atoms: _327  and  _328
REMARK  135  A    between atoms: _330  and  _332
REMARK  136  A    between atoms: _332  and  _333
REMARK  137  A    between atoms: _332  and  _335
REMARK  138  A    between atoms: _335  and  _336
REMARK  139  A    between atoms: _339  and  _341
REMARK  140  A    between atoms: _341  and  _342
REMARK  141  A    between atoms: _341  and  _344
REMARK  142  A    between atoms: _344  and  _345
REMARK  143  A    between atoms: _348  and  _350
REMARK  144  A    between atoms: _350  and  _351
REMARK  145  A    between atoms: _350  and  _353
REMARK  146  A    between atoms: _353  and  _354
REMARK  147  A    between atoms: _357  and  _359
REMARK  148  A    between atoms: _359  and  _360
REMARK  149  A    between atoms: _359  and  _362
REMARK  150  A    between atoms: _362  and  _363
REMARK  151  A    between atoms: _366  and  _368
REMARK  152  A    between atoms: _368  and  _369
REMARK  153  A    between atoms: _368  and  _371
REMARK  154  A    between atoms: _371  and  _372
REMARK  155  A    between atoms: _374  and  _376
REMARK  156  A    between atoms: _376  and  _377
REMARK  157  A    between atoms: _376  and  _379
REMARK  158  A    between atoms: _379  and  _380
REMARK  159  A    between atoms: _385  and  _386
REMARK  160  A    between atoms: _388  and  _390
REMARK  161  A    between atoms: _390  and  _391
REMARK  162  A    between atoms: _390  and  _393
REMARK  163  A    between atoms: _393  and  _394
REMARK  164  A    between atoms: _397  and  _399
REMARK  165  A    between atoms: _399  and  _400
REMARK  166  A    between atoms: _399  and  _402
REMARK  167  A    between atoms: _402  and  _403
REMARK  168  A    between atoms: _408  and  _410
REMARK  169  A    between atoms: _410  and  _411
REMARK  170  A    between atoms: _410  and  _413
REMARK  171  A    between atoms: _413  and  _414
REMARK  172  A    between atoms: _418  and  _419
REMARK  173  A    between atoms: _424  and  _426
REMARK  174  A    between atoms: _426  and  _427
REMARK  175  A    between atoms: _426  and  _429
REMARK  176  A    between atoms: _429  and  _430
REMARK  177  A    between atoms: _433  and  _435
REMARK  178  A    between atoms: _435  and  _436
REMARK  179  A    between atoms: _439  and  _441
REMARK  180  A    between atoms: _441  and  _442
REMARK  181  A    between atoms: _441  and  _444
REMARK  182  A    between atoms: _444  and  _445
REMARK  183  A    between atoms: _445  and  _446
REMARK  184  A    between atoms: _448  and  _450
REMARK  185  A    between atoms: _450  and  _451
REMARK  186  A    between atoms: _450  and  _453
REMARK  187  A    between atoms: _453  and  _454
REMARK  188  A    between atoms: _459  and  _461
REMARK  189  A    between atoms: _461  and  _462
REMARK  190  A    between atoms: _461  and  _464
REMARK  191  A    between atoms: _464  and  _465
REMARK  192  A    between atoms: _475  and  _477
REMARK  193  A    between atoms: _477  and  _478
REMARK  194  A    between atoms: _477  and  _480
REMARK  195  A    between atoms: _483  and  _485
REMARK  196  A    between atoms: _485  and  _486
REMARK  197  A    between atoms: _485  and  _488
REMARK  198  A    between atoms: _488  and  _489
REMARK  199  A    between atoms: _489  and  _490
REMARK  200  A    between atoms: _490  and  _491
REMARK  201  A    between atoms: _491  and  _492
REMARK  202  A    between atoms: _496  and  _498
REMARK  203  A    between atoms: _498  and  _499
REMARK  204  A    between atoms: _498  and  _501
REMARK  205  A    between atoms: _501  and  _502
REMARK  206  A    between atoms: _502  and  _503
REMARK  207  A    between atoms: _506  and  _508
REMARK  208  A    between atoms: _508  and  _509
REMARK  209  A    between atoms: _508  and  _511
REMARK  210  A    between atoms: _511  and  _512
REMARK  211  A    between atoms: _515  and  _517
REMARK  212  A    between atoms: _517  and  _518
REMARK  213  A    between atoms: _517  and  _520
REMARK  214  A    between atoms: _520  and  _521
REMARK  215  A    between atoms: _521  and  _522
REMARK  216  A    between atoms: _522  and  _523
REMARK  217  A    between atoms: _532  and  _534
REMARK  218  A    between atoms: _534  and  _535
REMARK  219  A    between atoms: _534  and  _537
REMARK  220  A    between atoms: _537  and  _538
REMARK  221  A    between atoms: _543  and  _545
REMARK  222  A    between atoms: _545  and  _546
REMARK  223  A    between atoms: _545  and  _548
REMARK  224  A    between atoms: _548  and  _549
REMARK  225  A    between atoms: _552  and  _554
REMARK  226  A    between atoms: _554  and  _555
REMARK  227  A    between atoms: _554  and  _557
REMARK  228  A    between atoms: _557  and  _558
REMARK  229  A    between atoms: _563  and  _565
REMARK  230  A    between atoms: _565  and  _566
REMARK  231  A    between atoms: _565  and  _568
REMARK  232  A    between atoms: _568  and  _569
REMARK  233  A    between atoms: _569  and  _570
REMARK  234  A    between atoms: _570  and  _571
REMARK  235  A    between atoms: _580  and  _582
REMARK  236  A    between atoms: _582  and  _583
REMARK  237  A    between atoms: _582  and  _585
REMARK  238  A    between atoms: _585  and  _586
REMARK  239  A    between atoms: _586  and  _587
REMARK  240  A    between atoms: _589  and  _591
REMARK  241  A    between atoms: _591  and  _592
REMARK  242  A    between atoms: _591  and  _594
REMARK  243  A    between atoms: _594  and  _595
REMARK  244  A    between atoms: _595  and  _596
REMARK  245  A    between atoms: _598  and  _600
REMARK  246  A    between atoms: _600  and  _601
REMARK  247  A    between atoms: _600  and  _603
REMARK  248  A    between atoms: _603  and  _604
REMARK  249  A    between atoms: _604  and  _605
REMARK  250  A    between atoms: _605  and  _606
REMARK  251  A    between atoms: _606  and  _607
REMARK  252  A    between atoms: _611  and  _613
REMARK  253  A    between atoms: _613  and  _614
REMARK  254  A    between atoms: _613  and  _616
REMARK  255  A    between atoms: _616  and  _617
REMARK                            x       y       z     vdW  Elec       q    Type
REMARK                         _______ _______ _______ _____ _____    ______ ____
ROOT
ATOM      1  CA  ASP A   1      60.689  19.277  35.711  0.00  0.00    +0.144 C 
ENDROOT
BRANCH   1   2
ATOM      2  N   ASP A   1      61.240  20.611  35.932  0.00  0.00    -0.239 NA
ATOM      3  H   ASP A   1      62.255  20.715  36.134  0.00  0.00    +0.142 HD
ENDBRANCH   1   2
BRANCH   1   4
ATOM      4  C   ASP A   1      59.990  18.679  36.926  0.00  0.00    +0.225 C 
ATOM      5  O   ASP A   1      60.629  18.365  37.917  0.00  0.00    -0.287 OA
ENDBRANCH   1   4
BRANCH   1   6
ATOM      6  CB  ASP A   1      61.807  18.338  35.242  0.00  0.00    +0.139 C 
BRANCH   6   7
ATOM      7  CG  ASP A   1      61.271  17.100  34.552  0.00  0.00    +0.367 C 
ATOM      8  OD2 ASP A   1      60.471  16.376  35.183  0.00  0.00    -0.246 OA
ATOM      9  OD1 ASP A   1      61.644  16.859  33.380  0.00  0.00    -0.246 OA
ENDBRANCH   6   7
ENDBRANCH   1   6
TORSDOF 4
REMARK  Name = ../refined-set-2016/1x8t/1x8t_pocket.pdb
REMARK  255 active torsions:
REMARK  status: ('A' for Active; 'I' for Inactive)
REMARK    1  A    between atoms: _1  and  _3
REMARK    2  A    between atoms: _3  and  _4
REMARK    3  A    between atoms: _3  and  _6
REMARK    4  A    between atoms: _6  and  _7
REMARK    5  A    between atoms: _9  and  _11
REMARK    6  A    between atoms: _11  and  _12
REMARK    7  A    between atoms: _11  and  _14
REMARK    8  A    between atoms: _14  and  _15
REMARK    9  A    between atoms: _15  and  _16
REMARK   10  A    between atoms: _16  and  _17
REMARK   11  A    between atoms: _17  and  _18
REMARK   12  A    between atoms: _22  and  _24
REMARK   13  A    between atoms: _24  and  _25
REMARK   14  A    between atoms: _24  and  _27
REMARK   15  A    between atoms: _27  and  _28
REMARK   16  A    between atoms: _30  and  _32
REMARK   17  A    between atoms: _32  and  _33
REMARK   18  A    between atoms: _32  and  _35
REMARK   19  A    between atoms: _38  and  _40
REMARK   20  A    between atoms: _40  and  _41
REMARK   21  A    between atoms: _40  and  _43
REMARK   22  A    between atoms: _43  and  _44
REMARK   23  A    between atoms: _46  and  _48
REMARK   24  A    between atoms: _48  and  _49
REMARK   25  A    between atoms: _48  and  _51
REMARK   26  A    between atoms: _51  and  _52
REMARK   27  A    between atoms: _57  and  _59
REMARK   28  A    between atoms: _59  and  _60
REMARK   29  A    between atoms: _59  and  _62
REMARK   30  A    between atoms: _62  and  _63
REMARK   31  A    between atoms: _63  and  _64
REMARK   32  A    between atoms: _64  and  _65
REMARK   33  A    between atoms: _74  and  _76
REMARK   34  A    between atoms: _76  and  _77
REMARK   35  A    between atoms: _76  and  _79
REMARK   36  A    between atoms: _79  and  _80
REMARK   37  A    between atoms: _83  and  _85
REMARK   38  A    between atoms: _85  and  _86
REMARK   39  A    between atoms: _85  and  _88
REMARK   40  A    between atoms: _88  and  _89
REMARK   41  A    between atoms: _94  and  _96
REMARK   42  A    between atoms: _96  and  _97
REMARK   43  A    between atoms: _100  and  _102
REMARK   44  A    between atoms: _102  and  _103
REMARK   45  A    between atoms: _105  and  _107
REMARK   46  A    between atoms: _107  and  _108
REMARK   47  A    between atoms: _107  and  _110
REMARK   48  A    between atoms: _110  and  _111
REMARK   49  A    between atoms: _114  and  _116
REMARK   50  A    between atoms: _116  and  _117
REMARK   51  A    between atoms: _120  and  _122
REMARK   52  A    between atoms: _122  and  _123
REMARK   53  A    between atoms: _122  and  _125
REMARK   54  A    between atoms: _125  and  _126
REMARK   55  A    between atoms: _126  and  _127
REMARK   56  A    between atoms: _129  and  _131
REMARK   57  A    between atoms: _131  and  _132
REMARK   58  A    between atoms: _131  and  _134
REMARK   59  A    between atoms: _134  and  _135
REMARK   60  A    between atoms: _135  and  _136
REMARK   61  A    between atoms: _136  and  _137
REMARK   62  A    between atoms: _147  and  _148
REMARK   63  A    between atoms: _153  and  _155
REMARK   64  A    between atoms: _155  and  _156
REMARK   65  A    between atoms: _155  and  _158
REMARK   66  A    between atoms: _158  and  _159
REMARK   67  A    between atoms: _159  and  _160
REMARK   68  A    between atoms: _160  and  _161
REMARK   69  A    between atoms: _171  and  _172
REMARK   70  A    between atoms: _177  and  _179
REMARK   71  A    between atoms: _179  and  _180
REMARK   72  A    between atoms: _182  and  _184
REMARK   73  A    between atoms: _184  and  _185
REMARK   74  A    between atoms: _184  and  _187
REMARK   75  A    between atoms: _187  and  _188
REMARK   76  A    between atoms: _190  and  _192
REMARK   77  A    between atoms: _192  and  _193
REMARK   78  A    between atoms: _192  and  _195
REMARK   79  A    between atoms: _198  and  _200
REMARK   80  A    between atoms: _200  and  _201
REMARK   81  A    between atoms: _200  and  _203
REMARK   82  A    between atoms: _203  and  _204
REMARK   83  A    between atoms: _206  and  _208
REMARK   84  A    between atoms: _208  and  _209
REMARK   85  A    between atoms: _208  and  _211
REMARK   86  A    between atoms: _211  and  _212
REMARK   87  A    between atoms: _214  and  _216
REMARK   88  A    between atoms: _216  and  _217
REMARK   89  A    between atoms: _216  and  _219
REMARK   90  A    between atoms: _219  and  _220
REMARK   91  A    between atoms: _220  and  _221
REMARK   92  A    between atoms: _226  and  _228
REMARK   93  A    between atoms: _228  and  _229
REMARK   94  A    between atoms: _228  and  _231
REMARK   95  A    between atoms: _231  and  _232
REMARK   96  A    between atoms: _238  and  _240
REMARK   97  A    between atoms: _240  and  _241
REMARK   98  A    between atoms: _240  and  _243
REMARK   99  A    between atoms: _243  and  _244
REMARK  100  A    between atoms: _247  and  _249
REMARK  101  A    between atoms: _249  and  _250
REMARK  102  A    between atoms: _249  and  _252
REMARK  103  A    between atoms: _252  and  _253
REMARK  104  A    between atoms: _256  and  _258
REMARK  105  A    between atoms: _258  and  _259
REMARK  106  A    between atoms: _262  and  _264
REMARK  107  A    between atoms: _264  and  _265
REMARK  108  A    between atoms: _264  and  _267
REMARK  109  A    between atoms: _267  and  _268
REMARK  110  A    between atoms: _268  and  _269
REMARK  111  A    between atoms: _271  and  _273
REMARK  112  A    between atoms: _273  and  _274
REMARK  113  A    between atoms: _273  and  _276
REMARK  114  A    between atoms: _276  and  _277
REMARK  115  A    between atoms: _280  and  _282
REMARK  116  A    between atoms: _282  and  _283
REMARK  117  A    between atoms: _282  and  _285
REMARK  118  A    between atoms: _288  and  _290
REMARK  119  A    between atoms: _290  and  _291
REMARK  120  A    between atoms: _290  and  _293
REMARK  121  A    between atoms: _293  and  _294
REMARK  122  A    between atoms: _296  and  _298
REMARK  123  A    between atoms: _298  and  _299
REMARK  124  A    between atoms: _298  and  _301
REMARK  125  A    between atoms: _301  and  _302
REMARK  126  A    between atoms: _302  and  _303
REMARK  127  A    between atoms: _303  and  _304
REMARK  128  A    between atoms: _304  and  _305
REMARK  129  A    between atoms: _310  and  _311
REMARK  130  A    between atoms: _316  and  _318
REMARK  131  A    between atoms: _318  and  _319
REMARK  132  A    between atoms: _318  and  _321
REMARK  133  A    between atoms: _321  and  _322
REMARK  134  A    between atoms: _327  and  _328
REMARK  135  A    between atoms: _330  and  _332
REMARK  136  A    between atoms: _332  and  _333
REMARK  137  A    between atoms: _332  and  _335
REMARK  138  A    between atoms: _335  and  _336
REMARK  139  A    between atoms: _339  and  _341
REMARK  140  A    between atoms: _341  and  _342
REMARK  141  A    between atoms: _341  and  _344
REMARK  142  A    between atoms: _344  and  _345
REMARK  143  A    between atoms: _348  and  _350
REMARK  144  A    between atoms: _350  and  _351
REMARK  145  A    between atoms: _350  and  _353
REMARK  146  A    between atoms: _353  and  _354
REMARK  147  A    between atoms: _357  and  _359
REMARK  148  A    between atoms: _359  and  _360
REMARK  149  A    between atoms: _359  and  _362
REMARK  150  A    between atoms: _362  and  _363
REMARK  151  A    between atoms: _366  and  _368
REMARK  152  A    between atoms: _368  and  _369
REMARK  153  A    between atoms: _368  and  _371
REMARK  154  A    between atoms: _371  and  _372
REMARK  155  A    between atoms: _374  and  _376
REMARK  156  A    between atoms: _376  and  _377
REMARK  157  A    between atoms: _376  and  _379
REMARK  158  A    between atoms: _379  and  _380
REMARK  159  A    between atoms: _385  and  _386
REMARK  160  A    between atoms: _388  and  _390
REMARK  161  A    between atoms: _390  and  _391
REMARK  162  A    between atoms: _390  and  _393
REMARK  163  A    between atoms: _393  and  _394
REMARK  164  A    between atoms: _397  and  _399
REMARK  165  A    between atoms: _399  and  _400
REMARK  166  A    between atoms: _399  and  _402
REMARK  167  A    between atoms: _402  and  _403
REMARK  168  A    between atoms: _408  and  _410
REMARK  169  A    between atoms: _410  and  _411
REMARK  170  A    between atoms: _410  and  _413
REMARK  171  A    between atoms: _413  and  _414
REMARK  172  A    between atoms: _418  and  _419
REMARK  173  A    between atoms: _424  and  _426
REMARK  174  A    between atoms: _426  and  _427
REMARK  175  A    between atoms: _426  and  _429
REMARK  176  A    between atoms: _429  and  _430
REMARK  177  A    between atoms: _433  and  _435
REMARK  178  A    between atoms: _435  and  _436
REMARK  179  A    between atoms: _439  and  _441
REMARK  180  A    between atoms: _441  and  _442
REMARK  181  A    between atoms: _441  and  _444
REMARK  182  A    between atoms: _444  and  _445
REMARK  183  A    between atoms: _445  and  _446
REMARK  184  A    between atoms: _448  and  _450
REMARK  185  A    between atoms: _450  and  _451
REMARK  186  A    between atoms: _450  and  _453
REMARK  187  A    between atoms: _453  and  _454
REMARK  188  A    between atoms: _459  and  _461
REMARK  189  A    between atoms: _461  and  _462
REMARK  190  A    between atoms: _461  and  _464
REMARK  191  A    between atoms: _464  and  _465
REMARK  192  A    between atoms: _475  and  _477
REMARK  193  A    between atoms: _477  and  _478
REMARK  194  A    between atoms: _477  and  _480
REMARK  195  A    between atoms: _483  and  _485
REMARK  196  A    between atoms: _485  and  _486
REMARK  197  A    between atoms: _485  and  _488
REMARK  198  A    between atoms: _488  and  _489
REMARK  199  A    between atoms: _489  and  _490
REMARK  200  A    between atoms: _490  and  _491
REMARK  201  A    between atoms: _491  and  _492
REMARK  202  A    between atoms: _496  and  _498
REMARK  203  A    between atoms: _498  and  _499
REMARK  204  A    between atoms: _498  and  _501
REMARK  205  A    between atoms: _501  and  _502
REMARK  206  A    between atoms: _502  and  _503
REMARK  207  A    between atoms: _506  and  _508
REMARK  208  A    between atoms: _508  and  _509
REMARK  209  A    between atoms: _508  and  _511
REMARK  210  A    between atoms: _511  and  _512
REMARK  211  A    between atoms: _515  and  _517
REMARK  212  A    between atoms: _517  and  _518
REMARK  213  A    between atoms: _517  and  _520
REMARK  214  A    between atoms: _520  and  _521
REMARK  215  A    between atoms: _521  and  _522
REMARK  216  A    between atoms: _522  and  _523
REMARK  217  A    between atoms: _532  and  _534
REMARK  218  A    between atoms: _534  and  _535
REMARK  219  A    between atoms: _534  and  _537
REMARK  220  A    between atoms: _537  and  _538
REMARK  221  A    between atoms: _543  and  _545
REMARK  222  A    between atoms: _545  and  _546
REMARK  223  A    between atoms: _545  and  _548
REMARK  224  A    between atoms: _548  and  _549
REMARK  225  A    between atoms: _552  and  _554
REMARK  226  A    between atoms: _554  and  _555
REMARK  227  A    between atoms: _554  and  _557
REMARK  228  A    between atoms: _557  and  _558
REMARK  229  A    between atoms: _563  and  _565
REMARK  230  A    between atoms: _565  and  _566
REMARK  231  A    between atoms: _565  and  _568
REMARK  232  A    between atoms: _568  and  _569
REMARK  233  A    between atoms: _569  and  _570
REMARK  234  A    between atoms: _570  and  _571
REMARK  235  A    between atoms: _580  and  _582
REMARK  236  A    between atoms: _582  and  _583
REMARK  237  A    between atoms: _582  and  _585
REMARK  238  A    between atoms: _585  and  _586
REMARK  239  A    between atoms: _586  and  _587
REMARK  240  A    between atoms: _589  and  _591
REMARK  241  A    between atoms: _591  and  _592
REMARK  242  A    between atoms: _591  and  _594
REMARK  243  A    between atoms: _594  and  _595
REMARK  244  A    between atoms: _595  and  _596
REMARK  245  A    between atoms: _598  and  _600
REMARK  246  A    between atoms: _600  and  _601
REMARK  247  A    between atoms: _600  and  _603
REMARK  248  A    between atoms: _603  and  _604
REMARK  249  A    between atoms: _604  and  _605
REMARK  250  A    between atoms: _605  and  _606
REMARK  251  A    between atoms: _606  and  _607
REMARK  252  A    between atoms: _611  and  _613
REMARK  253  A    between atoms: _613  and  _614
REMARK  254  A    between atoms: _613  and  _616
REMARK  255  A    between atoms: _616  and  _617
REMARK                            x       y       z     vdW  Elec       q    Type
REMARK                         _______ _______ _______ _____ _____    ______ ____
ROOT
ATOM      1  CA  SER A   1      58.922  14.360  37.356  0.00  0.00    +0.163 C 
ENDROOT
BRANCH   1   2
ATOM      2  N   SER A   1      58.601  15.762  37.172  0.00  0.00    -0.237 NA
ATOM      3  H   SER A   1      58.690  16.198  36.232  0.00  0.00    +0.142 HD
ENDBRANCH   1   2
BRANCH   1   4
ATOM      4  CB  SER A   1      60.236  14.273  38.137  0.00  0.00    +0.227 C 
ATOM      5  OG  SER A   1      60.370  13.478  39.067  0.00  0.00    -0.287 OA
ENDBRANCH   1   4
BRANCH   1   6
ATOM      6  C   SER A   1      59.040  13.664  35.996  0.00  0.00    +0.162 C 
BRANCH   6   7
ATOM      7  O   SER A   1      57.812  13.771  35.276  0.00  0.00    -0.380 OA
ATOM      8  H   SER A   1      57.903  13.317  34.401  0.00  0.00    +0.211 HD
ENDBRANCH   6   7
ENDBRANCH   1   6
TORSDOF 4
REMARK  Name = ../refined-set-2016/1x8t/1x8t_pocket.pdb
REMARK  255 active torsions:
REMARK  status: ('A' for Active; 'I' for Inactive)
REMARK    1  A    between atoms: _1  and  _3
REMARK    2  A    between atoms: _3  and  _4
REMARK    3  A    between atoms: _3  and  _6
REMARK    4  A    between atoms: _6  and  _7
REMARK    5  A    between atoms: _9  and  _11
REMARK    6  A    between atoms: _11  and  _12
REMARK    7  A    between atoms: _11  and  _14
REMARK    8  A    between atoms: _14  and  _15
REMARK    9  A    between atoms: _15  and  _16
REMARK   10  A    between atoms: _16  and  _17
REMARK   11  A    between atoms: _17  and  _18
REMARK   12  A    between atoms: _22  and  _24
REMARK   13  A    between atoms: _24  and  _25
REMARK   14  A    between atoms: _24  and  _27
REMARK   15  A    between atoms: _27  and  _28
REMARK   16  A    between atoms: _30  and  _32
REMARK   17  A    between atoms: _32  and  _33
REMARK   18  A    between atoms: _32  and  _35
REMARK   19  A    between atoms: _38  and  _40
REMARK   20  A    between atoms: _40  and  _41
REMARK   21  A    between atoms: _40  and  _43
REMARK   22  A    between atoms: _43  and  _44
REMARK   23  A    between atoms: _46  and  _48
REMARK   24  A    between atoms: _48  and  _49
REMARK   25  A    between atoms: _48  and  _51
REMARK   26  A    between atoms: _51  and  _52
REMARK   27  A    between atoms: _57  and  _59
REMARK   28  A    between atoms: _59  and  _60
REMARK   29  A    between atoms: _59  and  _62
REMARK   30  A    between atoms: _62  and  _63
REMARK   31  A    between atoms: _63  and  _64
REMARK   32  A    between atoms: _64  and  _65
REMARK   33  A    between atoms: _74  and  _76
REMARK   34  A    between atoms: _76  and  _77
REMARK   35  A    between atoms: _76  and  _79
REMARK   36  A    between atoms: _79  and  _80
REMARK   37  A    between atoms: _83  and  _85
REMARK   38  A    between atoms: _85  and  _86
REMARK   39  A    between atoms: _85  and  _88
REMARK   40  A    between atoms: _88  and  _89
REMARK   41  A    between atoms: _94  and  _96
REMARK   42  A    between atoms: _96  and  _97
REMARK   43  A    between atoms: _100  and  _102
REMARK   44  A    between atoms: _102  and  _103
REMARK   45  A    between atoms: _105  and  _107
REMARK   46  A    between atoms: _107  and  _108
REMARK   47  A    between atoms: _107  and  _110
REMARK   48  A    between atoms: _110  and  _111
REMARK   49  A    between atoms: _114  and  _116
REMARK   50  A    between atoms: _116  and  _117
REMARK   51  A    between atoms: _120  and  _122
REMARK   52  A    between atoms: _122  and  _123
REMARK   53  A    between atoms: _122  and  _125
REMARK   54  A    between atoms: _125  and  _126
REMARK   55  A    between atoms: _126  and  _127
REMARK   56  A    between atoms: _129  and  _131
REMARK   57  A    between atoms: _131  and  _132
REMARK   58  A    between atoms: _131  and  _134
REMARK   59  A    between atoms: _134  and  _135
REMARK   60  A    between atoms: _135  and  _136
REMARK   61  A    between atoms: _136  and  _137
REMARK   62  A    between atoms: _147  and  _148
REMARK   63  A    between atoms: _153  and  _155
REMARK   64  A    between atoms: _155  and  _156
REMARK   65  A    between atoms: _155  and  _158
REMARK   66  A    between atoms: _158  and  _159
REMARK   67  A    between atoms: _159  and  _160
REMARK   68  A    between atoms: _160  and  _161
REMARK   69  A    between atoms: _171  and  _172
REMARK   70  A    between atoms: _177  and  _179
REMARK   71  A    between atoms: _179  and  _180
REMARK   72  A    between atoms: _182  and  _184
REMARK   73  A    between atoms: _184  and  _185
REMARK   74  A    between atoms: _184  and  _187
REMARK   75  A    between atoms: _187  and  _188
REMARK   76  A    between atoms: _190  and  _192
REMARK   77  A    between atoms: _192  and  _193
REMARK   78  A    between atoms: _192  and  _195
REMARK   79  A    between atoms: _198  and  _200
REMARK   80  A    between atoms: _200  and  _201
REMARK   81  A    between atoms: _200  and  _203
REMARK   82  A    between atoms: _203  and  _204
REMARK   83  A    between atoms: _206  and  _208
REMARK   84  A    between atoms: _208  and  _209
REMARK   85  A    between atoms: _208  and  _211
REMARK   86  A    between atoms: _211  and  _212
REMARK   87  A    between atoms: _214  and  _216
REMARK   88  A    between atoms: _216  and  _217
REMARK   89  A    between atoms: _216  and  _219
REMARK   90  A    between atoms: _219  and  _220
REMARK   91  A    between atoms: _220  and  _221
REMARK   92  A    between atoms: _226  and  _228
REMARK   93  A    between atoms: _228  and  _229
REMARK   94  A    between atoms: _228  and  _231
REMARK   95  A    between atoms: _231  and  _232
REMARK   96  A    between atoms: _238  and  _240
REMARK   97  A    between atoms: _240  and  _241
REMARK   98  A    between atoms: _240  and  _243
REMARK   99  A    between atoms: _243  and  _244
REMARK  100  A    between atoms: _247  and  _249
REMARK  101  A    between atoms: _249  and  _250
REMARK  102  A    between atoms: _249  and  _252
REMARK  103  A    between atoms: _252  and  _253
REMARK  104  A    between atoms: _256  and  _258
REMARK  105  A    between atoms: _258  and  _259
REMARK  106  A    between atoms: _262  and  _264
REMARK  107  A    between atoms: _264  and  _265
REMARK  108  A    between atoms: _264  and  _267
REMARK  109  A    between atoms: _267  and  _268
REMARK  110  A    between atoms: _268  and  _269
REMARK  111  A    between atoms: _271  and  _273
REMARK  112  A    between atoms: _273  and  _274
REMARK  113  A    between atoms: _273  and  _276
REMARK  114  A    between atoms: _276  and  _277
REMARK  115  A    between atoms: _280  and  _282
REMARK  116  A    between atoms: _282  and  _283
REMARK  117  A    between atoms: _282  and  _285
REMARK  118  A    between atoms: _288  and  _290
REMARK  119  A    between atoms: _290  and  _291
REMARK  120  A    between atoms: _290  and  _293
REMARK  121  A    between atoms: _293  and  _294
REMARK  122  A    between atoms: _296  and  _298
REMARK  123  A    between atoms: _298  and  _299
REMARK  124  A    between atoms: _298  and  _301
REMARK  125  A    between atoms: _301  and  _302
REMARK  126  A    between atoms: _302  and  _303
REMARK  127  A    between atoms: _303  and  _304
REMARK  128  A    between atoms: _304  and  _305
REMARK  129  A    between atoms: _310  and  _311
REMARK  130  A    between atoms: _316  and  _318
REMARK  131  A    between atoms: _318  and  _319
REMARK  132  A    between atoms: _318  and  _321
REMARK  133  A    between atoms: _321  and  _322
REMARK  134  A    between atoms: _327  and  _328
REMARK  135  A    between atoms: _330  and  _332
REMARK  136  A    between atoms: _332  and  _333
REMARK  137  A    between atoms: _332  and  _335
REMARK  138  A    between atoms: _335  and  _336
REMARK  139  A    between atoms: _339  and  _341
REMARK  140  A    between atoms: _341  and  _342
REMARK  141  A    between atoms: _341  and  _344
REMARK  142  A    between atoms: _344  and  _345
REMARK  143  A    between atoms: _348  and  _350
REMARK  144  A    between atoms: _350  and  _351
REMARK  145  A    between atoms: _350  and  _353
REMARK  146  A    between atoms: _353  and  _354
REMARK  147  A    between atoms: _357  and  _359
REMARK  148  A    between atoms: _359  and  _360
REMARK  149  A    between atoms: _359  and  _362
REMARK  150  A    between atoms: _362  and  _363
REMARK  151  A    between atoms: _366  and  _368
REMARK  152  A    between atoms: _368  and  _369
REMARK  153  A    between atoms: _368  and  _371
REMARK  154  A    between atoms: _371  and  _372
REMARK  155  A    between atoms: _374  and  _376
REMARK  156  A    between atoms: _376  and  _377
REMARK  157  A    between atoms: _376  and  _379
REMARK  158  A    between atoms: _379  and  _380
REMARK  159  A    between atoms: _385  and  _386
REMARK  160  A    between atoms: _388  and  _390
REMARK  161  A    between atoms: _390  and  _391
REMARK  162  A    between atoms: _390  and  _393
REMARK  163  A    between atoms: _393  and  _394
REMARK  164  A    between atoms: _397  and  _399
REMARK  165  A    between atoms: _399  and  _400
REMARK  166  A    between atoms: _399  and  _402
REMARK  167  A    between atoms: _402  and  _403
REMARK  168  A    between atoms: _408  and  _410
REMARK  169  A    between atoms: _410  and  _411
REMARK  170  A    between atoms: _410  and  _413
REMARK  171  A    between atoms: _413  and  _414
REMARK  172  A    between atoms: _418  and  _419
REMARK  173  A    between atoms: _424  and  _426
REMARK  174  A    between atoms: _426  and  _427
REMARK  175  A    between atoms: _426  and  _429
REMARK  176  A    between atoms: _429  and  _430
REMARK  177  A    between atoms: _433  and  _435
REMARK  178  A    between atoms: _435  and  _436
REMARK  179  A    between atoms: _439  and  _441
REMARK  180  A    between atoms: _441  and  _442
REMARK  181  A    between atoms: _441  and  _444
REMARK  182  A    between atoms: _444  and  _445
REMARK  183  A    between atoms: _445  and  _446
REMARK  184  A    between atoms: _448  and  _450
REMARK  185  A    between atoms: _450  and  _451
REMARK  186  A    between atoms: _450  and  _453
REMARK  187  A    between atoms: _453  and  _454
REMARK  188  A    between atoms: _459  and  _461
REMARK  189  A    between atoms: _461  and  _462
REMARK  190  A    between atoms: _461  and  _464
REMARK  191  A    between atoms: _464  and  _465
REMARK  192  A    between atoms: _475  and  _477
REMARK  193  A    between atoms: _477  and  _478
REMARK  194  A    between atoms: _477  and  _480
REMARK  195  A    between atoms: _483  and  _485
REMARK  196  A    between atoms: _485  and  _486
REMARK  197  A    between atoms: _485  and  _488
REMARK  198  A    between atoms: _488  and  _489
REMARK  199  A    between atoms: _489  and  _490
REMARK  200  A    between atoms: _490  and  _491
REMARK  201  A    between atoms: _491  and  _492
REMARK  202  A    between atoms: _496  and  _498
REMARK  203  A    between atoms: _498  and  _499
REMARK  204  A    between atoms: _498  and  _501
REMARK  205  A    between atoms: _501  and  _502
REMARK  206  A    between atoms: _502  and  _503
REMARK  207  A    between atoms: _506  and  _508
REMARK  208  A    between atoms: _508  and  _509
REMARK  209  A    between atoms: _508  and  _511
REMARK  210  A    between atoms: _511  and  _512
REMARK  211  A    between atoms: _515  and  _517
REMARK  212  A    between atoms: _517  and  _518
REMARK  213  A    between atoms: _517  and  _520
REMARK  214  A    between atoms: _520  and  _521
REMARK  215  A    between atoms: _521  and  _522
REMARK  216  A    between atoms: _522  and  _523
REMARK  217  A    between atoms: _532  and  _534
REMARK  218  A    between atoms: _534  and  _535
REMARK  219  A    between atoms: _534  and  _537
REMARK  220  A    between atoms: _537  and  _538
REMARK  221  A    between atoms: _543  and  _545
REMARK  222  A    between atoms: _545  and  _546
REMARK  223  A    between atoms: _545  and  _548
REMARK  224  A    between atoms: _548  and  _549
REMARK  225  A    between atoms: _552  and  _554
REMARK  226  A    between atoms: _554  and  _555
REMARK  227  A    between atoms: _554  and  _557
REMARK  228  A    between atoms: _557  and  _558
REMARK  229  A    between atoms: _563  and  _565
REMARK  230  A    between atoms: _565  and  _566
REMARK  231  A    between atoms: _565  and  _568
REMARK  232  A    between atoms: _568  and  _569
REMARK  233  A    between atoms: _569  and  _570
REMARK  234  A    between atoms: _570  and  _571
REMARK  235  A    between atoms: _580  and  _582
REMARK  236  A    between atoms: _582  and  _583
REMARK  237  A    between atoms: _582  and  _585
REMARK  238  A    between atoms: _585  and  _586
REMARK  239  A    between atoms: _586  and  _587
REMARK  240  A    between atoms: _589  and  _591
REMARK  241  A    between atoms: _591  and  _592
REMARK  242  A    between atoms: _591  and  _594
REMARK  243  A    between atoms: _594  and  _595
REMARK  244  A    between atoms: _595  and  _596
REMARK  245  A    between atoms: _598  and  _600
REMARK  246  A    between atoms: _600  and  _601
REMARK  247  A    between atoms: _600  and  _603
REMARK  248  A    between atoms: _603  and  _604
REMARK  249  A    between atoms: _604  and  _605
REMARK  250  A    between atoms: _605  and  _606
REMARK  251  A    between atoms: _606  and  _607
REMARK  252  A    between atoms: _611  and  _613
REMARK  253  A    between atoms: _613  and  _614
REMARK  254  A    between atoms: _613  and  _616
REMARK  255  A    between atoms: _616  and  _617
REMARK                            x       y       z     vdW  Elec       q    Type
REMARK                         _______ _______ _______ _____ _____    ______ ____
ROOT
ATOM      1  CG  TYR A   1      63.422  11.382  41.874  0.00  0.00    -0.020 A 
ATOM      2  CD2 TYR A   1      62.993  10.055  41.900  0.00  0.00    -0.001 A 
ATOM      3  CE2 TYR A   1      62.600   9.398  40.731  0.00  0.00    +0.036 A 
ATOM      4  CZ  TYR A   1      62.637  10.084  39.520  0.00  0.00    +0.134 A 
ATOM      5  CE1 TYR A   1      63.069  11.402  39.474  0.00  0.00    +0.036 A 
ATOM      6  CD1 TYR A   1      63.460  12.040  40.650  0.00  0.00    -0.001 A 
ENDROOT
BRANCH   4   7
ATOM      7  OH  TYR A   1      62.218   9.469  38.359  0.00  0.00    -0.506 OA
ATOM      8  HH  TYR A   1      61.944   8.539  38.560  0.00  0.00    +0.292 HD
ENDBRANCH   4   7
BRANCH   1   9
ATOM      9  CB  TYR A   1      63.746  12.111  43.153  0.00  0.00    +0.051 C 
BRANCH   9  10
ATOM     10  CA  TYR A   1      62.489  12.351  43.994  0.00  0.00    +0.137 C 
BRANCH  10  11
ATOM     11  N   TYR A   1      61.478  12.988  43.169  0.00  0.00    -0.239 NA
ATOM     12  H   TYR A   1      61.699  13.253  42.188  0.00  0.00    +0.142 HD
ENDBRANCH  10  11
BRANCH  10  13
ATOM     13  C   TYR A   1      62.813  13.179  45.241  0.00  0.00    +0.224 C 
ATOM     14  O   TYR A   1      62.917  12.638  46.338  0.00  0.00    -0.287 OA
ENDBRANCH  10  13
ENDBRANCH   9  10
ENDBRANCH   1   9
TORSDOF 5
REMARK  Name = ../refined-set-2016/1x8t/1x8t_pocket.pdb
REMARK  255 active torsions:
REMARK  status: ('A' for Active; 'I' for Inactive)
REMARK    1  A    between atoms: _1  and  _3
REMARK    2  A    between atoms: _3  and  _4
REMARK    3  A    between atoms: _3  and  _6
REMARK    4  A    between atoms: _6  and  _7
REMARK    5  A    between atoms: _9  and  _11
REMARK    6  A    between atoms: _11  and  _12
REMARK    7  A    between atoms: _11  and  _14
REMARK    8  A    between atoms: _14  and  _15
REMARK    9  A    between atoms: _15  and  _16
REMARK   10  A    between atoms: _16  and  _17
REMARK   11  A    between atoms: _17  and  _18
REMARK   12  A    between atoms: _22  and  _24
REMARK   13  A    between atoms: _24  and  _25
REMARK   14  A    between atoms: _24  and  _27
REMARK   15  A    between atoms: _27  and  _28
REMARK   16  A    between atoms: _30  and  _32
REMARK   17  A    between atoms: _32  and  _33
REMARK   18  A    between atoms: _32  and  _35
REMARK   19  A    between atoms: _38  and  _40
REMARK   20  A    between atoms: _40  and  _41
REMARK   21  A    between atoms: _40  and  _43
REMARK   22  A    between atoms: _43  and  _44
REMARK   23  A    between atoms: _46  and  _48
REMARK   24  A    between atoms: _48  and  _49
REMARK   25  A    between atoms: _48  and  _51
REMARK   26  A    between atoms: _51  and  _52
REMARK   27  A    between atoms: _57  and  _59
REMARK   28  A    between atoms: _59  and  _60
REMARK   29  A    between atoms: _59  and  _62
REMARK   30  A    between atoms: _62  and  _63
REMARK   31  A    between atoms: _63  and  _64
REMARK   32  A    between atoms: _64  and  _65
REMARK   33  A    between atoms: _74  and  _76
REMARK   34  A    between atoms: _76  and  _77
REMARK   35  A    between atoms: _76  and  _79
REMARK   36  A    between atoms: _79  and  _80
REMARK   37  A    between atoms: _83  and  _85
REMARK   38  A    between atoms: _85  and  _86
REMARK   39  A    between atoms: _85  and  _88
REMARK   40  A    between atoms: _88  and  _89
REMARK   41  A    between atoms: _94  and  _96
REMARK   42  A    between atoms: _96  and  _97
REMARK   43  A    between atoms: _100  and  _102
REMARK   44  A    between atoms: _102  and  _103
REMARK   45  A    between atoms: _105  and  _107
REMARK   46  A    between atoms: _107  and  _108
REMARK   47  A    between atoms: _107  and  _110
REMARK   48  A    between atoms: _110  and  _111
REMARK   49  A    between atoms: _114  and  _116
REMARK   50  A    between atoms: _116  and  _117
REMARK   51  A    between atoms: _120  and  _122
REMARK   52  A    between atoms: _122  and  _123
REMARK   53  A    between atoms: _122  and  _125
REMARK   54  A    between atoms: _125  and  _126
REMARK   55  A    between atoms: _126  and  _127
REMARK   56  A    between atoms: _129  and  _131
REMARK   57  A    between atoms: _131  and  _132
REMARK   58  A    between atoms: _131  and  _134
REMARK   59  A    between atoms: _134  and  _135
REMARK   60  A    between atoms: _135  and  _136
REMARK   61  A    between atoms: _136  and  _137
REMARK   62  A    between atoms: _147  and  _148
REMARK   63  A    between atoms: _153  and  _155
REMARK   64  A    between atoms: _155  and  _156
REMARK   65  A    between atoms: _155  and  _158
REMARK   66  A    between atoms: _158  and  _159
REMARK   67  A    between atoms: _159  and  _160
REMARK   68  A    between atoms: _160  and  _161
REMARK   69  A    between atoms: _171  and  _172
REMARK   70  A    between atoms: _177  and  _179
REMARK   71  A    between atoms: _179  and  _180
REMARK   72  A    between atoms: _182  and  _184
REMARK   73  A    between atoms: _184  and  _185
REMARK   74  A    between atoms: _184  and  _187
REMARK   75  A    between atoms: _187  and  _188
REMARK   76  A    between atoms: _190  and  _192
REMARK   77  A    between atoms: _192  and  _193
REMARK   78  A    between atoms: _192  and  _195
REMARK   79  A    between atoms: _198  and  _200
REMARK   80  A    between atoms: _200  and  _201
REMARK   81  A    between atoms: _200  and  _203
REMARK   82  A    between atoms: _203  and  _204
REMARK   83  A    between atoms: _206  and  _208
REMARK   84  A    between atoms: _208  and  _209
REMARK   85  A    between atoms: _208  and  _211
REMARK   86  A    between atoms: _211  and  _212
REMARK   87  A    between atoms: _214  and  _216
REMARK   88  A    between atoms: _216  and  _217
REMARK   89  A    between atoms: _216  and  _219
REMARK   90  A    between atoms: _219  and  _220
REMARK   91  A    between atoms: _220  and  _221
REMARK   92  A    between atoms: _226  and  _228
REMARK   93  A    between atoms: _228  and  _229
REMARK   94  A    between atoms: _228  and  _231
REMARK   95  A    between atoms: _231  and  _232
REMARK   96  A    between atoms: _238  and  _240
REMARK   97  A    between atoms: _240  and  _241
REMARK   98  A    between atoms: _240  and  _243
REMARK   99  A    between atoms: _243  and  _244
REMARK  100  A    between atoms: _247  and  _249
REMARK  101  A    between atoms: _249  and  _250
REMARK  102  A    between atoms: _249  and  _252
REMARK  103  A    between atoms: _252  and  _253
REMARK  104  A    between atoms: _256  and  _258
REMARK  105  A    between atoms: _258  and  _259
REMARK  106  A    between atoms: _262  and  _264
REMARK  107  A    between atoms: _264  and  _265
REMARK  108  A    between atoms: _264  and  _267
REMARK  109  A    between atoms: _267  and  _268
REMARK  110  A    between atoms: _268  and  _269
REMARK  111  A    between atoms: _271  and  _273
REMARK  112  A    between atoms: _273  and  _274
REMARK  113  A    between atoms: _273  and  _276
REMARK  114  A    between atoms: _276  and  _277
REMARK  115  A    between atoms: _280  and  _282
REMARK  116  A    between atoms: _282  and  _283
REMARK  117  A    between atoms: _282  and  _285
REMARK  118  A    between atoms: _288  and  _290
REMARK  119  A    between atoms: _290  and  _291
REMARK  120  A    between atoms: _290  and  _293
REMARK  121  A    between atoms: _293  and  _294
REMARK  122  A    between atoms: _296  and  _298
REMARK  123  A    between atoms: _298  and  _299
REMARK  124  A    between atoms: _298  and  _301
REMARK  125  A    between atoms: _301  and  _302
REMARK  126  A    between atoms: _302  and  _303
REMARK  127  A    between atoms: _303  and  _304
REMARK  128  A    between atoms: _304  and  _305
REMARK  129  A    between atoms: _310  and  _311
REMARK  130  A    between atoms: _316  and  _318
REMARK  131  A    between atoms: _318  and  _319
REMARK  132  A    between atoms: _318  and  _321
REMARK  133  A    between atoms: _321  and  _322
REMARK  134  A    between atoms: _327  and  _328
REMARK  135  A    between atoms: _330  and  _332
REMARK  136  A    between atoms: _332  and  _333
REMARK  137  A    between atoms: _332  and  _335
REMARK  138  A    between atoms: _335  and  _336
REMARK  139  A    between atoms: _339  and  _341
REMARK  140  A    between atoms: _341  and  _342
REMARK  141  A    between atoms: _341  and  _344
REMARK  142  A    between atoms: _344  and  _345
REMARK  143  A    between atoms: _348  and  _350
REMARK  144  A    between atoms: _350  and  _351
REMARK  145  A    between atoms: _350  and  _353
REMARK  146  A    between atoms: _353  and  _354
REMARK  147  A    between atoms: _357  and  _359
REMARK  148  A    between atoms: _359  and  _360
REMARK  149  A    between atoms: _359  and  _362
REMARK  150  A    between atoms: _362  and  _363
REMARK  151  A    between atoms: _366  and  _368
REMARK  152  A    between atoms: _368  and  _369
REMARK  153  A    between atoms: _368  and  _371
REMARK  154  A    between atoms: _371  and  _372
REMARK  155  A    between atoms: _374  and  _376
REMARK  156  A    between atoms: _376  and  _377
REMARK  157  A    between atoms: _376  and  _379
REMARK  158  A    between atoms: _379  and  _380
REMARK  159  A    between atoms: _385  and  _386
REMARK  160  A    between atoms: _388  and  _390
REMARK  161  A    between atoms: _390  and  _391
REMARK  162  A    between atoms: _390  and  _393
REMARK  163  A    between atoms: _393  and  _394
REMARK  164  A    between atoms: _397  and  _399
REMARK  165  A    between atoms: _399  and  _400
REMARK  166  A    between atoms: _399  and  _402
REMARK  167  A    between atoms: _402  and  _403
REMARK  168  A    between atoms: _408  and  _410
REMARK  169  A    between atoms: _410  and  _411
REMARK  170  A    between atoms: _410  and  _413
REMARK  171  A    between atoms: _413  and  _414
REMARK  172  A    between atoms: _418  and  _419
REMARK  173  A    between atoms: _424  and  _426
REMARK  174  A    between atoms: _426  and  _427
REMARK  175  A    between atoms: _426  and  _429
REMARK  176  A    between atoms: _429  and  _430
REMARK  177  A    between atoms: _433  and  _435
REMARK  178  A    between atoms: _435  and  _436
REMARK  179  A    between atoms: _439  and  _441
REMARK  180  A    between atoms: _441  and  _442
REMARK  181  A    between atoms: _441  and  _444
REMARK  182  A    between atoms: _444  and  _445
REMARK  183  A    between atoms: _445  and  _446
REMARK  184  A    between atoms: _448  and  _450
REMARK  185  A    between atoms: _450  and  _451
REMARK  186  A    between atoms: _450  and  _453
REMARK  187  A    between atoms: _453  and  _454
REMARK  188  A    between atoms: _459  and  _461
REMARK  189  A    between atoms: _461  and  _462
REMARK  190  A    between atoms: _461  and  _464
REMARK  191  A    between atoms: _464  and  _465
REMARK  192  A    between atoms: _475  and  _477
REMARK  193  A    between atoms: _477  and  _478
REMARK  194  A    between atoms: _477  and  _480
REMARK  195  A    between atoms: _483  and  _485
REMARK  196  A    between atoms: _485  and  _486
REMARK  197  A    between atoms: _485  and  _488
REMARK  198  A    between atoms: _488  and  _489
REMARK  199  A    between atoms: _489  and  _490
REMARK  200  A    between atoms: _490  and  _491
REMARK  201  A    between atoms: _491  and  _492
REMARK  202  A    between atoms: _496  and  _498
REMARK  203  A    between atoms: _498  and  _499
REMARK  204  A    between atoms: _498  and  _501
REMARK  205  A    between atoms: _501  and  _502
REMARK  206  A    between atoms: _502  and  _503
REMARK  207  A    between atoms: _506  and  _508
REMARK  208  A    between atoms: _508  and  _509
REMARK  209  A    between atoms: _508  and  _511
REMARK  210  A    between atoms: _511  and  _512
REMARK  211  A    between atoms: _515  and  _517
REMARK  212  A    between atoms: _517  and  _518
REMARK  213  A    between atoms: _517  and  _520
REMARK  214  A    between atoms: _520  and  _521
REMARK  215  A    between atoms: _521  and  _522
REMARK  216  A    between atoms: _522  and  _523
REMARK  217  A    between atoms: _532  and  _534
REMARK  218  A    between atoms: _534  and  _535
REMARK  219  A    between atoms: _534  and  _537
REMARK  220  A    between atoms: _537  and  _538
REMARK  221  A    between atoms: _543  and  _545
REMARK  222  A    between atoms: _545  and  _546
REMARK  223  A    between atoms: _545  and  _548
REMARK  224  A    between atoms: _548  and  _549
REMARK  225  A    between atoms: _552  and  _554
REMARK  226  A    between atoms: _554  and  _555
REMARK  227  A    between atoms: _554  and  _557
REMARK  228  A    between atoms: _557  and  _558
REMARK  229  A    between atoms: _563  and  _565
REMARK  230  A    between atoms: _565  and  _566
REMARK  231  A    between atoms: _565  and  _568
REMARK  232  A    between atoms: _568  and  _569
REMARK  233  A    between atoms: _569  and  _570
REMARK  234  A    between atoms: _570  and  _571
REMARK  235  A    between atoms: _580  and  _582
REMARK  236  A    between atoms: _582  and  _583
REMARK  237  A    between atoms: _582  and  _585
REMARK  238  A    between atoms: _585  and  _586
REMARK  239  A    between atoms: _586  and  _587
REMARK  240  A    between atoms: _589  and  _591
REMARK  241  A    between atoms: _591  and  _592
REMARK  242  A    between atoms: _591  and  _594
REMARK  243  A    between atoms: _594  and  _595
REMARK  244  A    between atoms: _595  and  _596
REMARK  245  A    between atoms: _598  and  _600
REMARK  246  A    between atoms: _600  and  _601
REMARK  247  A    between atoms: _600  and  _603
REMARK  248  A    between atoms: _603  and  _604
REMARK  249  A    between atoms: _604  and  _605
REMARK  250  A    between atoms: _605  and  _606
REMARK  251  A    between atoms: _606  and  _607
REMARK  252  A    between atoms: _611  and  _613
REMARK  253  A    between atoms: _613  and  _614
REMARK  254  A    between atoms: _613  and  _616
REMARK  255  A    between atoms: _616  and  _617
REMARK                            x       y       z     vdW  Elec       q    Type
REMARK                         _______ _______ _______ _____ _____    ______ ____
ROOT
ATOM      1  CA  ASP A   1      53.358  15.170  37.823  0.00  0.00    +0.144 C 
ENDROOT
BRANCH   1   2
ATOM      2  N   ASP A   1      52.616  15.721  36.698  0.00  0.00    -0.239 NA
ATOM      3  H   ASP A   1      53.110  16.011  35.830  0.00  0.00    +0.142 HD
ENDBRANCH   1   2
BRANCH   1   4
ATOM      4  C   ASP A   1      53.392  16.029  39.081  0.00  0.00    +0.225 C 
ATOM      5  O   ASP A   1      53.860  15.574  40.116  0.00  0.00    -0.287 OA
ENDBRANCH   1   4
BRANCH   1   6
ATOM      6  CB  ASP A   1      54.774  14.752  37.396  0.00  0.00    +0.139 C 
BRANCH   6   7
ATOM      7  CG  ASP A   1      54.804  13.336  36.825  0.00  0.00    +0.367 C 
ATOM      8  OD2 ASP A   1      53.713  12.753  36.633  0.00  0.00    -0.246 OA
ATOM      9  OD1 ASP A   1      55.905  12.796  36.573  0.00  0.00    -0.246 OA
ENDBRANCH   6   7
ENDBRANCH   1   6
TORSDOF 4
REMARK  Name = ../refined-set-2016/1x8t/1x8t_pocket.pdb
REMARK  255 active torsions:
REMARK  status: ('A' for Active; 'I' for Inactive)
REMARK    1  A    between atoms: _1  and  _3
REMARK    2  A    between atoms: _3  and  _4
REMARK    3  A    between atoms: _3  and  _6
REMARK    4  A    between atoms: _6  and  _7
REMARK    5  A    between atoms: _9  and  _11
REMARK    6  A    between atoms: _11  and  _12
REMARK    7  A    between atoms: _11  and  _14
REMARK    8  A    between atoms: _14  and  _15
REMARK    9  A    between atoms: _15  and  _16
REMARK   10  A    between atoms: _16  and  _17
REMARK   11  A    between atoms: _17  and  _18
REMARK   12  A    between atoms: _22  and  _24
REMARK   13  A    between atoms: _24  and  _25
REMARK   14  A    between atoms: _24  and  _27
REMARK   15  A    between atoms: _27  and  _28
REMARK   16  A    between atoms: _30  and  _32
REMARK   17  A    between atoms: _32  and  _33
REMARK   18  A    between atoms: _32  and  _35
REMARK   19  A    between atoms: _38  and  _40
REMARK   20  A    between atoms: _40  and  _41
REMARK   21  A    between atoms: _40  and  _43
REMARK   22  A    between atoms: _43  and  _44
REMARK   23  A    between atoms: _46  and  _48
REMARK   24  A    between atoms: _48  and  _49
REMARK   25  A    between atoms: _48  and  _51
REMARK   26  A    between atoms: _51  and  _52
REMARK   27  A    between atoms: _57  and  _59
REMARK   28  A    between atoms: _59  and  _60
REMARK   29  A    between atoms: _59  and  _62
REMARK   30  A    between atoms: _62  and  _63
REMARK   31  A    between atoms: _63  and  _64
REMARK   32  A    between atoms: _64  and  _65
REMARK   33  A    between atoms: _74  and  _76
REMARK   34  A    between atoms: _76  and  _77
REMARK   35  A    between atoms: _76  and  _79
REMARK   36  A    between atoms: _79  and  _80
REMARK   37  A    between atoms: _83  and  _85
REMARK   38  A    between atoms: _85  and  _86
REMARK   39  A    between atoms: _85  and  _88
REMARK   40  A    between atoms: _88  and  _89
REMARK   41  A    between atoms: _94  and  _96
REMARK   42  A    between atoms: _96  and  _97
REMARK   43  A    between atoms: _100  and  _102
REMARK   44  A    between atoms: _102  and  _103
REMARK   45  A    between atoms: _105  and  _107
REMARK   46  A    between atoms: _107  and  _108
REMARK   47  A    between atoms: _107  and  _110
REMARK   48  A    between atoms: _110  and  _111
REMARK   49  A    between atoms: _114  and  _116
REMARK   50  A    between atoms: _116  and  _117
REMARK   51  A    between atoms: _120  and  _122
REMARK   52  A    between atoms: _122  and  _123
REMARK   53  A    between atoms: _122  and  _125
REMARK   54  A    between atoms: _125  and  _126
REMARK   55  A    between atoms: _126  and  _127
REMARK   56  A    between atoms: _129  and  _131
REMARK   57  A    between atoms: _131  and  _132
REMARK   58  A    between atoms: _131  and  _134
REMARK   59  A    between atoms: _134  and  _135
REMARK   60  A    between atoms: _135  and  _136
REMARK   61  A    between atoms: _136  and  _137
REMARK   62  A    between atoms: _147  and  _148
REMARK   63  A    between atoms: _153  and  _155
REMARK   64  A    between atoms: _155  and  _156
REMARK   65  A    between atoms: _155  and  _158
REMARK   66  A    between atoms: _158  and  _159
REMARK   67  A    between atoms: _159  and  _160
REMARK   68  A    between atoms: _160  and  _161
REMARK   69  A    between atoms: _171  and  _172
REMARK   70  A    between atoms: _177  and  _179
REMARK   71  A    between atoms: _179  and  _180
REMARK   72  A    between atoms: _182  and  _184
REMARK   73  A    between atoms: _184  and  _185
REMARK   74  A    between atoms: _184  and  _187
REMARK   75  A    between atoms: _187  and  _188
REMARK   76  A    between atoms: _190  and  _192
REMARK   77  A    between atoms: _192  and  _193
REMARK   78  A    between atoms: _192  and  _195
REMARK   79  A    between atoms: _198  and  _200
REMARK   80  A    between atoms: _200  and  _201
REMARK   81  A    between atoms: _200  and  _203
REMARK   82  A    between atoms: _203  and  _204
REMARK   83  A    between atoms: _206  and  _208
REMARK   84  A    between atoms: _208  and  _209
REMARK   85  A    between atoms: _208  and  _211
REMARK   86  A    between atoms: _211  and  _212
REMARK   87  A    between atoms: _214  and  _216
REMARK   88  A    between atoms: _216  and  _217
REMARK   89  A    between atoms: _216  and  _219
REMARK   90  A    between atoms: _219  and  _220
REMARK   91  A    between atoms: _220  and  _221
REMARK   92  A    between atoms: _226  and  _228
REMARK   93  A    between atoms: _228  and  _229
REMARK   94  A    between atoms: _228  and  _231
REMARK   95  A    between atoms: _231  and  _232
REMARK   96  A    between atoms: _238  and  _240
REMARK   97  A    between atoms: _240  and  _241
REMARK   98  A    between atoms: _240  and  _243
REMARK   99  A    between atoms: _243  and  _244
REMARK  100  A    between atoms: _247  and  _249
REMARK  101  A    between atoms: _249  and  _250
REMARK  102  A    between atoms: _249  and  _252
REMARK  103  A    between atoms: _252  and  _253
REMARK  104  A    between atoms: _256  and  _258
REMARK  105  A    between atoms: _258  and  _259
REMARK  106  A    between atoms: _262  and  _264
REMARK  107  A    between atoms: _264  and  _265
REMARK  108  A    between atoms: _264  and  _267
REMARK  109  A    between atoms: _267  and  _268
REMARK  110  A    between atoms: _268  and  _269
REMARK  111  A    between atoms: _271  and  _273
REMARK  112  A    between atoms: _273  and  _274
REMARK  113  A    between atoms: _273  and  _276
REMARK  114  A    between atoms: _276  and  _277
REMARK  115  A    between atoms: _280  and  _282
REMARK  116  A    between atoms: _282  and  _283
REMARK  117  A    between atoms: _282  and  _285
REMARK  118  A    between atoms: _288  and  _290
REMARK  119  A    between atoms: _290  and  _291
REMARK  120  A    between atoms: _290  and  _293
REMARK  121  A    between atoms: _293  and  _294
REMARK  122  A    between atoms: _296  and  _298
REMARK  123  A    between atoms: _298  and  _299
REMARK  124  A    between atoms: _298  and  _301
REMARK  125  A    between atoms: _301  and  _302
REMARK  126  A    between atoms: _302  and  _303
REMARK  127  A    between atoms: _303  and  _304
REMARK  128  A    between atoms: _304  and  _305
REMARK  129  A    between atoms: _310  and  _311
REMARK  130  A    between atoms: _316  and  _318
REMARK  131  A    between atoms: _318  and  _319
REMARK  132  A    between atoms: _318  and  _321
REMARK  133  A    between atoms: _321  and  _322
REMARK  134  A    between atoms: _327  and  _328
REMARK  135  A    between atoms: _330  and  _332
REMARK  136  A    between atoms: _332  and  _333
REMARK  137  A    between atoms: _332  and  _335
REMARK  138  A    between atoms: _335  and  _336
REMARK  139  A    between atoms: _339  and  _341
REMARK  140  A    between atoms: _341  and  _342
REMARK  141  A    between atoms: _341  and  _344
REMARK  142  A    between atoms: _344  and  _345
REMARK  143  A    between atoms: _348  and  _350
REMARK  144  A    between atoms: _350  and  _351
REMARK  145  A    between atoms: _350  and  _353
REMARK  146  A    between atoms: _353  and  _354
REMARK  147  A    between atoms: _357  and  _359
REMARK  148  A    between atoms: _359  and  _360
REMARK  149  A    between atoms: _359  and  _362
REMARK  150  A    between atoms: _362  and  _363
REMARK  151  A    between atoms: _366  and  _368
REMARK  152  A    between atoms: _368  and  _369
REMARK  153  A    between atoms: _368  and  _371
REMARK  154  A    between atoms: _371  and  _372
REMARK  155  A    between atoms: _374  and  _376
REMARK  156  A    between atoms: _376  and  _377
REMARK  157  A    between atoms: _376  and  _379
REMARK  158  A    between atoms: _379  and  _380
REMARK  159  A    between atoms: _385  and  _386
REMARK  160  A    between atoms: _388  and  _390
REMARK  161  A    between atoms: _390  and  _391
REMARK  162  A    between atoms: _390  and  _393
REMARK  163  A    between atoms: _393  and  _394
REMARK  164  A    between atoms: _397  and  _399
REMARK  165  A    between atoms: _399  and  _400
REMARK  166  A    between atoms: _399  and  _402
REMARK  167  A    between atoms: _402  and  _403
REMARK  168  A    between atoms: _408  and  _410
REMARK  169  A    between atoms: _410  and  _411
REMARK  170  A    between atoms: _410  and  _413
REMARK  171  A    between atoms: _413  and  _414
REMARK  172  A    between atoms: _418  and  _419
REMARK  173  A    between atoms: _424  and  _426
REMARK  174  A    between atoms: _426  and  _427
REMARK  175  A    between atoms: _426  and  _429
REMARK  176  A    between atoms: _429  and  _430
REMARK  177  A    between atoms: _433  and  _435
REMARK  178  A    between atoms: _435  and  _436
REMARK  179  A    between atoms: _439  and  _441
REMARK  180  A    between atoms: _441  and  _442
REMARK  181  A    between atoms: _441  and  _444
REMARK  182  A    between atoms: _444  and  _445
REMARK  183  A    between atoms: _445  and  _446
REMARK  184  A    between atoms: _448  and  _450
REMARK  185  A    between atoms: _450  and  _451
REMARK  186  A    between atoms: _450  and  _453
REMARK  187  A    between atoms: _453  and  _454
REMARK  188  A    between atoms: _459  and  _461
REMARK  189  A    between atoms: _461  and  _462
REMARK  190  A    between atoms: _461  and  _464
REMARK  191  A    between atoms: _464  and  _465
REMARK  192  A    between atoms: _475  and  _477
REMARK  193  A    between atoms: _477  and  _478
REMARK  194  A    between atoms: _477  and  _480
REMARK  195  A    between atoms: _483  and  _485
REMARK  196  A    between atoms: _485  and  _486
REMARK  197  A    between atoms: _485  and  _488
REMARK  198  A    between atoms: _488  and  _489
REMARK  199  A    between atoms: _489  and  _490
REMARK  200  A    between atoms: _490  and  _491
REMARK  201  A    between atoms: _491  and  _492
REMARK  202  A    between atoms: _496  and  _498
REMARK  203  A    between atoms: _498  and  _499
REMARK  204  A    between atoms: _498  and  _501
REMARK  205  A    between atoms: _501  and  _502
REMARK  206  A    between atoms: _502  and  _503
REMARK  207  A    between atoms: _506  and  _508
REMARK  208  A    between atoms: _508  and  _509
REMARK  209  A    between atoms: _508  and  _511
REMARK  210  A    between atoms: _511  and  _512
REMARK  211  A    between atoms: _515  and  _517
REMARK  212  A    between atoms: _517  and  _518
REMARK  213  A    between atoms: _517  and  _520
REMARK  214  A    between atoms: _520  and  _521
REMARK  215  A    between atoms: _521  and  _522
REMARK  216  A    between atoms: _522  and  _523
REMARK  217  A    between atoms: _532  and  _534
REMARK  218  A    between atoms: _534  and  _535
REMARK  219  A    between atoms: _534  and  _537
REMARK  220  A    between atoms: _537  and  _538
REMARK  221  A    between atoms: _543  and  _545
REMARK  222  A    between atoms: _545  and  _546
REMARK  223  A    between atoms: _545  and  _548
REMARK  224  A    between atoms: _548  and  _549
REMARK  225  A    between atoms: _552  and  _554
REMARK  226  A    between atoms: _554  and  _555
REMARK  227  A    between atoms: _554  and  _557
REMARK  228  A    between atoms: _557  and  _558
REMARK  229  A    between atoms: _563  and  _565
REMARK  230  A    between atoms: _565  and  _566
REMARK  231  A    between atoms: _565  and  _568
REMARK  232  A    between atoms: _568  and  _569
REMARK  233  A    between atoms: _569  and  _570
REMARK  234  A    between atoms: _570  and  _571
REMARK  235  A    between atoms: _580  and  _582
REMARK  236  A    between atoms: _582  and  _583
REMARK  237  A    between atoms: _582  and  _585
REMARK  238  A    between atoms: _585  and  _586
REMARK  239  A    between atoms: _586  and  _587
REMARK  240  A    between atoms: _589  and  _591
REMARK  241  A    between atoms: _591  and  _592
REMARK  242  A    between atoms: _591  and  _594
REMARK  243  A    between atoms: _594  and  _595
REMARK  244  A    between atoms: _595  and  _596
REMARK  245  A    between atoms: _598  and  _600
REMARK  246  A    between atoms: _600  and  _601
REMARK  247  A    between atoms: _600  and  _603
REMARK  248  A    between atoms: _603  and  _604
REMARK  249  A    between atoms: _604  and  _605
REMARK  250  A    between atoms: _605  and  _606
REMARK  251  A    between atoms: _606  and  _607
REMARK  252  A    between atoms: _611  and  _613
REMARK  253  A    between atoms: _613  and  _614
REMARK  254  A    between atoms: _613  and  _616
REMARK  255  A    between atoms: _616  and  _617
REMARK                            x       y       z     vdW  Elec       q    Type
REMARK                         _______ _______ _______ _____ _____    ______ ____
ROOT
ATOM      1  CB  ASN A   1      46.391   5.772  34.657  0.00  0.00    +0.110 C 
ENDROOT
BRANCH   1   2
ATOM      2  CG  ASN A   1      46.600   5.624  33.167  0.00  0.00    +0.221 C 
ATOM      3  ND2 ASN A   1      47.145   4.479  32.764  0.00  0.00    -0.329 N 
ATOM      4 HD21 ASN A   1      47.380   3.742  33.459  0.00  0.00    +0.145 HD
ATOM      5 HD22 ASN A   1      47.336   4.321  31.754  0.00  0.00    +0.145 HD
ATOM      6  OD1 ASN A   1      46.301   6.532  32.387  0.00  0.00    -0.275 OA
ENDBRANCH   1   2
BRANCH   1   7
ATOM      7  CA  ASN A   1      47.641   6.296  35.365  0.00  0.00    +0.142 C 
BRANCH   7   8
ATOM      8  N   ASN A   1      47.558   6.043  36.800  0.00  0.00    -0.239 NA
ATOM      9  H   ASN A   1      46.694   5.629  37.204  0.00  0.00    +0.142 HD
ENDBRANCH   7   8
BRANCH   7  10
ATOM     10  C   ASN A   1      47.879   7.751  34.986  0.00  0.00    +0.225 C 
ATOM     11  O   ASN A   1      48.432   8.033  33.924  0.00  0.00    -0.287 OA
ENDBRANCH   7  10
ENDBRANCH   1   7
TORSDOF 4
REMARK  Name = ../refined-set-2016/1x8t/1x8t_pocket.pdb
REMARK  255 active torsions:
REMARK  status: ('A' for Active; 'I' for Inactive)
REMARK    1  A    between atoms: _1  and  _3
REMARK    2  A    between atoms: _3  and  _4
REMARK    3  A    between atoms: _3  and  _6
REMARK    4  A    between atoms: _6  and  _7
REMARK    5  A    between atoms: _9  and  _11
REMARK    6  A    between atoms: _11  and  _12
REMARK    7  A    between atoms: _11  and  _14
REMARK    8  A    between atoms: _14  and  _15
REMARK    9  A    between atoms: _15  and  _16
REMARK   10  A    between atoms: _16  and  _17
REMARK   11  A    between atoms: _17  and  _18
REMARK   12  A    between atoms: _22  and  _24
REMARK   13  A    between atoms: _24  and  _25
REMARK   14  A    between atoms: _24  and  _27
REMARK   15  A    between atoms: _27  and  _28
REMARK   16  A    between atoms: _30  and  _32
REMARK   17  A    between atoms: _32  and  _33
REMARK   18  A    between atoms: _32  and  _35
REMARK   19  A    between atoms: _38  and  _40
REMARK   20  A    between atoms: _40  and  _41
REMARK   21  A    between atoms: _40  and  _43
REMARK   22  A    between atoms: _43  and  _44
REMARK   23  A    between atoms: _46  and  _48
REMARK   24  A    between atoms: _48  and  _49
REMARK   25  A    between atoms: _48  and  _51
REMARK   26  A    between atoms: _51  and  _52
REMARK   27  A    between atoms: _57  and  _59
REMARK   28  A    between atoms: _59  and  _60
REMARK   29  A    between atoms: _59  and  _62
REMARK   30  A    between atoms: _62  and  _63
REMARK   31  A    between atoms: _63  and  _64
REMARK   32  A    between atoms: _64  and  _65
REMARK   33  A    between atoms: _74  and  _76
REMARK   34  A    between atoms: _76  and  _77
REMARK   35  A    between atoms: _76  and  _79
REMARK   36  A    between atoms: _79  and  _80
REMARK   37  A    between atoms: _83  and  _85
REMARK   38  A    between atoms: _85  and  _86
REMARK   39  A    between atoms: _85  and  _88
REMARK   40  A    between atoms: _88  and  _89
REMARK   41  A    between atoms: _94  and  _96
REMARK   42  A    between atoms: _96  and  _97
REMARK   43  A    between atoms: _100  and  _102
REMARK   44  A    between atoms: _102  and  _103
REMARK   45  A    between atoms: _105  and  _107
REMARK   46  A    between atoms: _107  and  _108
REMARK   47  A    between atoms: _107  and  _110
REMARK   48  A    between atoms: _110  and  _111
REMARK   49  A    between atoms: _114  and  _116
REMARK   50  A    between atoms: _116  and  _117
REMARK   51  A    between atoms: _120  and  _122
REMARK   52  A    between atoms: _122  and  _123
REMARK   53  A    between atoms: _122  and  _125
REMARK   54  A    between atoms: _125  and  _126
REMARK   55  A    between atoms: _126  and  _127
REMARK   56  A    between atoms: _129  and  _131
REMARK   57  A    between atoms: _131  and  _132
REMARK   58  A    between atoms: _131  and  _134
REMARK   59  A    between atoms: _134  and  _135
REMARK   60  A    between atoms: _135  and  _136
REMARK   61  A    between atoms: _136  and  _137
REMARK   62  A    between atoms: _147  and  _148
REMARK   63  A    between atoms: _153  and  _155
REMARK   64  A    between atoms: _155  and  _156
REMARK   65  A    between atoms: _155  and  _158
REMARK   66  A    between atoms: _158  and  _159
REMARK   67  A    between atoms: _159  and  _160
REMARK   68  A    between atoms: _160  and  _161
REMARK   69  A    between atoms: _171  and  _172
REMARK   70  A    between atoms: _177  and  _179
REMARK   71  A    between atoms: _179  and  _180
REMARK   72  A    between atoms: _182  and  _184
REMARK   73  A    between atoms: _184  and  _185
REMARK   74  A    between atoms: _184  and  _187
REMARK   75  A    between atoms: _187  and  _188
REMARK   76  A    between atoms: _190  and  _192
REMARK   77  A    between atoms: _192  and  _193
REMARK   78  A    between atoms: _192  and  _195
REMARK   79  A    between atoms: _198  and  _200
REMARK   80  A    between atoms: _200  and  _201
REMARK   81  A    between atoms: _200  and  _203
REMARK   82  A    between atoms: _203  and  _204
REMARK   83  A    between atoms: _206  and  _208
REMARK   84  A    between atoms: _208  and  _209
REMARK   85  A    between atoms: _208  and  _211
REMARK   86  A    between atoms: _211  and  _212
REMARK   87  A    between atoms: _214  and  _216
REMARK   88  A    between atoms: _216  and  _217
REMARK   89  A    between atoms: _216  and  _219
REMARK   90  A    between atoms: _219  and  _220
REMARK   91  A    between atoms: _220  and  _221
REMARK   92  A    between atoms: _226  and  _228
REMARK   93  A    between atoms: _228  and  _229
REMARK   94  A    between atoms: _228  and  _231
REMARK   95  A    between atoms: _231  and  _232
REMARK   96  A    between atoms: _238  and  _240
REMARK   97  A    between atoms: _240  and  _241
REMARK   98  A    between atoms: _240  and  _243
REMARK   99  A    between atoms: _243  and  _244
REMARK  100  A    between atoms: _247  and  _249
REMARK  101  A    between atoms: _249  and  _250
REMARK  102  A    between atoms: _249  and  _252
REMARK  103  A    between atoms: _252  and  _253
REMARK  104  A    between atoms: _256  and  _258
REMARK  105  A    between atoms: _258  and  _259
REMARK  106  A    between atoms: _262  and  _264
REMARK  107  A    between atoms: _264  and  _265
REMARK  108  A    between atoms: _264  and  _267
REMARK  109  A    between atoms: _267  and  _268
REMARK  110  A    between atoms: _268  and  _269
REMARK  111  A    between atoms: _271  and  _273
REMARK  112  A    between atoms: _273  and  _274
REMARK  113  A    between atoms: _273  and  _276
REMARK  114  A    between atoms: _276  and  _277
REMARK  115  A    between atoms: _280  and  _282
REMARK  116  A    between atoms: _282  and  _283
REMARK  117  A    between atoms: _282  and  _285
REMARK  118  A    between atoms: _288  and  _290
REMARK  119  A    between atoms: _290  and  _291
REMARK  120  A    between atoms: _290  and  _293
REMARK  121  A    between atoms: _293  and  _294
REMARK  122  A    between atoms: _296  and  _298
REMARK  123  A    between atoms: _298  and  _299
REMARK  124  A    between atoms: _298  and  _301
REMARK  125  A    between atoms: _301  and  _302
REMARK  126  A    between atoms: _302  and  _303
REMARK  127  A    between atoms: _303  and  _304
REMARK  128  A    between atoms: _304  and  _305
REMARK  129  A    between atoms: _310  and  _311
REMARK  130  A    between atoms: _316  and  _318
REMARK  131  A    between atoms: _318  and  _319
REMARK  132  A    between atoms: _318  and  _321
REMARK  133  A    between atoms: _321  and  _322
REMARK  134  A    between atoms: _327  and  _328
REMARK  135  A    between atoms: _330  and  _332
REMARK  136  A    between atoms: _332  and  _333
REMARK  137  A    between atoms: _332  and  _335
REMARK  138  A    between atoms: _335  and  _336
REMARK  139  A    between atoms: _339  and  _341
REMARK  140  A    between atoms: _341  and  _342
REMARK  141  A    between atoms: _341  and  _344
REMARK  142  A    between atoms: _344  and  _345
REMARK  143  A    between atoms: _348  and  _350
REMARK  144  A    between atoms: _350  and  _351
REMARK  145  A    between atoms: _350  and  _353
REMARK  146  A    between atoms: _353  and  _354
REMARK  147  A    between atoms: _357  and  _359
REMARK  148  A    between atoms: _359  and  _360
REMARK  149  A    between atoms: _359  and  _362
REMARK  150  A    between atoms: _362  and  _363
REMARK  151  A    between atoms: _366  and  _368
REMARK  152  A    between atoms: _368  and  _369
REMARK  153  A    between atoms: _368  and  _371
REMARK  154  A    between atoms: _371  and  _372
REMARK  155  A    between atoms: _374  and  _376
REMARK  156  A    between atoms: _376  and  _377
REMARK  157  A    between atoms: _376  and  _379
REMARK  158  A    between atoms: _379  and  _380
REMARK  159  A    between atoms: _385  and  _386
REMARK  160  A    between atoms: _388  and  _390
REMARK  161  A    between atoms: _390  and  _391
REMARK  162  A    between atoms: _390  and  _393
REMARK  163  A    between atoms: _393  and  _394
REMARK  164  A    between atoms: _397  and  _399
REMARK  165  A    between atoms: _399  and  _400
REMARK  166  A    between atoms: _399  and  _402
REMARK  167  A    between atoms: _402  and  _403
REMARK  168  A    between atoms: _408  and  _410
REMARK  169  A    between atoms: _410  and  _411
REMARK  170  A    between atoms: _410  and  _413
REMARK  171  A    between atoms: _413  and  _414
REMARK  172  A    between atoms: _418  and  _419
REMARK  173  A    between atoms: _424  and  _426
REMARK  174  A    between atoms: _426  and  _427
REMARK  175  A    between atoms: _426  and  _429
REMARK  176  A    between atoms: _429  and  _430
REMARK  177  A    between atoms: _433  and  _435
REMARK  178  A    between atoms: _435  and  _436
REMARK  179  A    between atoms: _439  and  _441
REMARK  180  A    between atoms: _441  and  _442
REMARK  181  A    between atoms: _441  and  _444
REMARK  182  A    between atoms: _444  and  _445
REMARK  183  A    between atoms: _445  and  _446
REMARK  184  A    between atoms: _448  and  _450
REMARK  185  A    between atoms: _450  and  _451
REMARK  186  A    between atoms: _450  and  _453
REMARK  187  A    between atoms: _453  and  _454
REMARK  188  A    between atoms: _459  and  _461
REMARK  189  A    between atoms: _461  and  _462
REMARK  190  A    between atoms: _461  and  _464
REMARK  191  A    between atoms: _464  and  _465
REMARK  192  A    between atoms: _475  and  _477
REMARK  193  A    between atoms: _477  and  _478
REMARK  194  A    between atoms: _477  and  _480
REMARK  195  A    between atoms: _483  and  _485
REMARK  196  A    between atoms: _485  and  _486
REMARK  197  A    between atoms: _485  and  _488
REMARK  198  A    between atoms: _488  and  _489
REMARK  199  A    between atoms: _489  and  _490
REMARK  200  A    between atoms: _490  and  _491
REMARK  201  A    between atoms: _491  and  _492
REMARK  202  A    between atoms: _496  and  _498
REMARK  203  A    between atoms: _498  and  _499
REMARK  204  A    between atoms: _498  and  _501
REMARK  205  A    between atoms: _501  and  _502
REMARK  206  A    between atoms: _502  and  _503
REMARK  207  A    between atoms: _506  and  _508
REMARK  208  A    between atoms: _508  and  _509
REMARK  209  A    between atoms: _508  and  _511
REMARK  210  A    between atoms: _511  and  _512
REMARK  211  A    between atoms: _515  and  _517
REMARK  212  A    between atoms: _517  and  _518
REMARK  213  A    between atoms: _517  and  _520
REMARK  214  A    between atoms: _520  and  _521
REMARK  215  A    between atoms: _521  and  _522
REMARK  216  A    between atoms: _522  and  _523
REMARK  217  A    between atoms: _532  and  _534
REMARK  218  A    between atoms: _534  and  _535
REMARK  219  A    between atoms: _534  and  _537
REMARK  220  A    between atoms: _537  and  _538
REMARK  221  A    between atoms: _543  and  _545
REMARK  222  A    between atoms: _545  and  _546
REMARK  223  A    between atoms: _545  and  _548
REMARK  224  A    between atoms: _548  and  _549
REMARK  225  A    between atoms: _552  and  _554
REMARK  226  A    between atoms: _554  and  _555
REMARK  227  A    between atoms: _554  and  _557
REMARK  228  A    between atoms: _557  and  _558
REMARK  229  A    between atoms: _563  and  _565
REMARK  230  A    between atoms: _565  and  _566
REMARK  231  A    between atoms: _565  and  _568
REMARK  232  A    between atoms: _568  and  _569
REMARK  233  A    between atoms: _569  and  _570
REMARK  234  A    between atoms: _570  and  _571
REMARK  235  A    between atoms: _580  and  _582
REMARK  236  A    between atoms: _582  and  _583
REMARK  237  A    between atoms: _582  and  _585
REMARK  238  A    between atoms: _585  and  _586
REMARK  239  A    between atoms: _586  and  _587
REMARK  240  A    between atoms: _589  and  _591
REMARK  241  A    between atoms: _591  and  _592
REMARK  242  A    between atoms: _591  and  _594
REMARK  243  A    between atoms: _594  and  _595
REMARK  244  A    between atoms: _595  and  _596
REMARK  245  A    between atoms: _598  and  _600
REMARK  246  A    between atoms: _600  and  _601
REMARK  247  A    between atoms: _600  and  _603
REMARK  248  A    between atoms: _603  and  _604
REMARK  249  A    between atoms: _604  and  _605
REMARK  250  A    between atoms: _605  and  _606
REMARK  251  A    between atoms: _606  and  _607
REMARK  252  A    between atoms: _611  and  _613
REMARK  253  A    between atoms: _613  and  _614
REMARK  254  A    between atoms: _613  and  _616
REMARK  255  A    between atoms: _616  and  _617
REMARK                            x       y       z     vdW  Elec       q    Type
REMARK                         _______ _______ _______ _____ _____    ______ ____
ROOT
ATOM      1  C   PRO A   2      54.421   7.125  35.944  0.00  0.00    +0.241 C 
ATOM      2  O   PRO A   2      54.924   6.197  36.566  0.00  0.00    -0.273 OA
ATOM      3  N   ASP A   3      55.101   8.213  35.605  0.00  0.00    -0.297 N 
ATOM      4  H   ASP A   3      54.616   8.985  35.105  0.00  0.00    +0.150 HD
ENDROOT
BRANCH   1   8
ATOM      5  C   ILE A   1      52.154   8.956  36.837  0.00  0.00    +0.241 C 
ATOM      6  O   ILE A   1      52.844   8.616  37.802  0.00  0.00    -0.273 OA
ATOM      7  N   PRO A   2      52.162   8.278  35.684  0.00  0.00    -0.272 N 
ATOM      8  CA  PRO A   2      52.954   7.057  35.527  0.00  0.00    +0.152 C 
ATOM      9  CB  PRO A   2      52.784   6.722  34.045  0.00  0.00    +0.031 C 
ATOM     10  CG  PRO A   2      52.603   8.082  33.406  0.00  0.00    +0.024 C 
ATOM     11  CD  PRO A   2      51.670   8.762  34.378  0.00  0.00    +0.094 C 
BRANCH   5  12
ATOM     12  CA  ILE A   1      51.278  10.206  36.895  0.00  0.00    +0.145 C 
BRANCH  12  13
ATOM     13  N   ILE A   1      49.889   9.835  36.600  0.00  0.00    -0.238 NA
ATOM     14  H   ILE A   1      49.496   8.967  37.016  0.00  0.00    +0.142 HD
ENDBRANCH  12  13
BRANCH  12  15
ATOM     15  CB  ILE A   1      51.424  10.835  38.305  0.00  0.00    +0.025 C 
ATOM     16  CG2 ILE A   1      50.896  12.265  38.295  0.00  0.00    +0.002 C 
BRANCH  15  17
ATOM     17  CG1 ILE A   1      50.706   9.967  39.337  0.00  0.00    +0.002 C 
ATOM     18  CD1 ILE A   1      50.900  10.429  40.776  0.00  0.00    +0.000 C 
ENDBRANCH  15  17
ENDBRANCH  12  15
ENDBRANCH   5  12
ENDBRANCH   1   8
BRANCH   3  19
ATOM     19  CA  ASP A   3      56.515   8.342  35.922  0.00  0.00    +0.160 C 
BRANCH  19  20
ATOM     20  C   ASP A   3      56.742   8.651  37.391  0.00  0.00    +0.241 C 
ATOM     21  O   ASP A   3      57.515   7.966  38.062  0.00  0.00    -0.273 OA
ATOM     22  N   ALA A   4      56.073   9.679  37.891  0.00  0.00    -0.298 N 
ATOM     23  H   ALA A   4      55.454  10.242  37.274  0.00  0.00    +0.150 HD
BRANCH  22  24
ATOM     24  CA  ALA A   4      56.199  10.026  39.300  0.00  0.00    +0.137 C 
ATOM     25  CB  ALA A   4      55.394  11.289  39.605  0.00  0.00    +0.030 C 
BRANCH  24  26
ATOM     26  C   ALA A   4      55.724   8.868  40.180  0.00  0.00    +0.227 C 
ATOM     27  O   ALA A   4      56.139   8.746  41.328  0.00  0.00    -0.286 OA
ENDBRANCH  24  26
ENDBRANCH  22  24
ENDBRANCH  19  20
BRANCH  19  28
ATOM     28  CB  ASP A   3      57.150   9.413  35.041  0.00  0.00    +0.143 C 
BRANCH  28  29
ATOM     29  CG  ASP A   3      57.245   8.986  33.587  0.00  0.00    +0.367 C 
ATOM     30  OD2 ASP A   3      56.894   7.825  33.276  0.00  0.00    -0.246 OA
ATOM     31  OD1 ASP A   3      57.674   9.812  32.753  0.00  0.00    -0.246 OA
ENDBRANCH  28  29
ENDBRANCH  19  28
ENDBRANCH   3  19
TORSDOF 11
REMARK  Name = ../refined-set-2016/1x8t/1x8t_pocket.pdb
REMARK  255 active torsions:
REMARK  status: ('A' for Active; 'I' for Inactive)
REMARK    1  A    between atoms: _1  and  _3
REMARK    2  A    between atoms: _3  and  _4
REMARK    3  A    between atoms: _3  and  _6
REMARK    4  A    between atoms: _6  and  _7
REMARK    5  A    between atoms: _9  and  _11
REMARK    6  A    between atoms: _11  and  _12
REMARK    7  A    between atoms: _11  and  _14
REMARK    8  A    between atoms: _14  and  _15
REMARK    9  A    between atoms: _15  and  _16
REMARK   10  A    between atoms: _16  and  _17
REMARK   11  A    between atoms: _17  and  _18
REMARK   12  A    between atoms: _22  and  _24
REMARK   13  A    between atoms: _24  and  _25
REMARK   14  A    between atoms: _24  and  _27
REMARK   15  A    between atoms: _27  and  _28
REMARK   16  A    between atoms: _30  and  _32
REMARK   17  A    between atoms: _32  and  _33
REMARK   18  A    between atoms: _32  and  _35
REMARK   19  A    between atoms: _38  and  _40
REMARK   20  A    between atoms: _40  and  _41
REMARK   21  A    between atoms: _40  and  _43
REMARK   22  A    between atoms: _43  and  _44
REMARK   23  A    between atoms: _46  and  _48
REMARK   24  A    between atoms: _48  and  _49
REMARK   25  A    between atoms: _48  and  _51
REMARK   26  A    between atoms: _51  and  _52
REMARK   27  A    between atoms: _57  and  _59
REMARK   28  A    between atoms: _59  and  _60
REMARK   29  A    between atoms: _59  and  _62
REMARK   30  A    between atoms: _62  and  _63
REMARK   31  A    between atoms: _63  and  _64
REMARK   32  A    between atoms: _64  and  _65
REMARK   33  A    between atoms: _74  and  _76
REMARK   34  A    between atoms: _76  and  _77
REMARK   35  A    between atoms: _76  and  _79
REMARK   36  A    between atoms: _79  and  _80
REMARK   37  A    between atoms: _83  and  _85
REMARK   38  A    between atoms: _85  and  _86
REMARK   39  A    between atoms: _85  and  _88
REMARK   40  A    between atoms: _88  and  _89
REMARK   41  A    between atoms: _94  and  _96
REMARK   42  A    between atoms: _96  and  _97
REMARK   43  A    between atoms: _100  and  _102
REMARK   44  A    between atoms: _102  and  _103
REMARK   45  A    between atoms: _105  and  _107
REMARK   46  A    between atoms: _107  and  _108
REMARK   47  A    between atoms: _107  and  _110
REMARK   48  A    between atoms: _110  and  _111
REMARK   49  A    between atoms: _114  and  _116
REMARK   50  A    between atoms: _116  and  _117
REMARK   51  A    between atoms: _120  and  _122
REMARK   52  A    between atoms: _122  and  _123
REMARK   53  A    between atoms: _122  and  _125
REMARK   54  A    between atoms: _125  and  _126
REMARK   55  A    between atoms: _126  and  _127
REMARK   56  A    between atoms: _129  and  _131
REMARK   57  A    between atoms: _131  and  _132
REMARK   58  A    between atoms: _131  and  _134
REMARK   59  A    between atoms: _134  and  _135
REMARK   60  A    between atoms: _135  and  _136
REMARK   61  A    between atoms: _136  and  _137
REMARK   62  A    between atoms: _147  and  _148
REMARK   63  A    between atoms: _153  and  _155
REMARK   64  A    between atoms: _155  and  _156
REMARK   65  A    between atoms: _155  and  _158
REMARK   66  A    between atoms: _158  and  _159
REMARK   67  A    between atoms: _159  and  _160
REMARK   68  A    between atoms: _160  and  _161
REMARK   69  A    between atoms: _171  and  _172
REMARK   70  A    between atoms: _177  and  _179
REMARK   71  A    between atoms: _179  and  _180
REMARK   72  A    between atoms: _182  and  _184
REMARK   73  A    between atoms: _184  and  _185
REMARK   74  A    between atoms: _184  and  _187
REMARK   75  A    between atoms: _187  and  _188
REMARK   76  A    between atoms: _190  and  _192
REMARK   77  A    between atoms: _192  and  _193
REMARK   78  A    between atoms: _192  and  _195
REMARK   79  A    between atoms: _198  and  _200
REMARK   80  A    between atoms: _200  and  _201
REMARK   81  A    between atoms: _200  and  _203
REMARK   82  A    between atoms: _203  and  _204
REMARK   83  A    between atoms: _206  and  _208
REMARK   84  A    between atoms: _208  and  _209
REMARK   85  A    between atoms: _208  and  _211
REMARK   86  A    between atoms: _211  and  _212
REMARK   87  A    between atoms: _214  and  _216
REMARK   88  A    between atoms: _216  and  _217
REMARK   89  A    between atoms: _216  and  _219
REMARK   90  A    between atoms: _219  and  _220
REMARK   91  A    between atoms: _220  and  _221
REMARK   92  A    between atoms: _226  and  _228
REMARK   93  A    between atoms: _228  and  _229
REMARK   94  A    between atoms: _228  and  _231
REMARK   95  A    between atoms: _231  and  _232
REMARK   96  A    between atoms: _238  and  _240
REMARK   97  A    between atoms: _240  and  _241
REMARK   98  A    between atoms: _240  and  _243
REMARK   99  A    between atoms: _243  and  _244
REMARK  100  A    between atoms: _247  and  _249
REMARK  101  A    between atoms: _249  and  _250
REMARK  102  A    between atoms: _249  and  _252
REMARK  103  A    between atoms: _252  and  _253
REMARK  104  A    between atoms: _256  and  _258
REMARK  105  A    between atoms: _258  and  _259
REMARK  106  A    between atoms: _262  and  _264
REMARK  107  A    between atoms: _264  and  _265
REMARK  108  A    between atoms: _264  and  _267
REMARK  109  A    between atoms: _267  and  _268
REMARK  110  A    between atoms: _268  and  _269
REMARK  111  A    between atoms: _271  and  _273
REMARK  112  A    between atoms: _273  and  _274
REMARK  113  A    between atoms: _273  and  _276
REMARK  114  A    between atoms: _276  and  _277
REMARK  115  A    between atoms: _280  and  _282
REMARK  116  A    between atoms: _282  and  _283
REMARK  117  A    between atoms: _282  and  _285
REMARK  118  A    between atoms: _288  and  _290
REMARK  119  A    between atoms: _290  and  _291
REMARK  120  A    between atoms: _290  and  _293
REMARK  121  A    between atoms: _293  and  _294
REMARK  122  A    between atoms: _296  and  _298
REMARK  123  A    between atoms: _298  and  _299
REMARK  124  A    between atoms: _298  and  _301
REMARK  125  A    between atoms: _301  and  _302
REMARK  126  A    between atoms: _302  and  _303
REMARK  127  A    between atoms: _303  and  _304
REMARK  128  A    between atoms: _304  and  _305
REMARK  129  A    between atoms: _310  and  _311
REMARK  130  A    between atoms: _316  and  _318
REMARK  131  A    between atoms: _318  and  _319
REMARK  132  A    between atoms: _318  and  _321
REMARK  133  A    between atoms: _321  and  _322
REMARK  134  A    between atoms: _327  and  _328
REMARK  135  A    between atoms: _330  and  _332
REMARK  136  A    between atoms: _332  and  _333
REMARK  137  A    between atoms: _332  and  _335
REMARK  138  A    between atoms: _335  and  _336
REMARK  139  A    between atoms: _339  and  _341
REMARK  140  A    between atoms: _341  and  _342
REMARK  141  A    between atoms: _341  and  _344
REMARK  142  A    between atoms: _344  and  _345
REMARK  143  A    between atoms: _348  and  _350
REMARK  144  A    between atoms: _350  and  _351
REMARK  145  A    between atoms: _350  and  _353
REMARK  146  A    between atoms: _353  and  _354
REMARK  147  A    between atoms: _357  and  _359
REMARK  148  A    between atoms: _359  and  _360
REMARK  149  A    between atoms: _359  and  _362
REMARK  150  A    between atoms: _362  and  _363
REMARK  151  A    between atoms: _366  and  _368
REMARK  152  A    between atoms: _368  and  _369
REMARK  153  A    between atoms: _368  and  _371
REMARK  154  A    between atoms: _371  and  _372
REMARK  155  A    between atoms: _374  and  _376
REMARK  156  A    between atoms: _376  and  _377
REMARK  157  A    between atoms: _376  and  _379
REMARK  158  A    between atoms: _379  and  _380
REMARK  159  A    between atoms: _385  and  _386
REMARK  160  A    between atoms: _388  and  _390
REMARK  161  A    between atoms: _390  and  _391
REMARK  162  A    between atoms: _390  and  _393
REMARK  163  A    between atoms: _393  and  _394
REMARK  164  A    between atoms: _397  and  _399
REMARK  165  A    between atoms: _399  and  _400
REMARK  166  A    between atoms: _399  and  _402
REMARK  167  A    between atoms: _402  and  _403
REMARK  168  A    between atoms: _408  and  _410
REMARK  169  A    between atoms: _410  and  _411
REMARK  170  A    between atoms: _410  and  _413
REMARK  171  A    between atoms: _413  and  _414
REMARK  172  A    between atoms: _418  and  _419
REMARK  173  A    between atoms: _424  and  _426
REMARK  174  A    between atoms: _426  and  _427
REMARK  175  A    between atoms: _426  and  _429
REMARK  176  A    between atoms: _429  and  _430
REMARK  177  A    between atoms: _433  and  _435
REMARK  178  A    between atoms: _435  and  _436
REMARK  179  A    between atoms: _439  and  _441
REMARK  180  A    between atoms: _441  and  _442
REMARK  181  A    between atoms: _441  and  _444
REMARK  182  A    between atoms: _444  and  _445
REMARK  183  A    between atoms: _445  and  _446
REMARK  184  A    between atoms: _448  and  _450
REMARK  185  A    between atoms: _450  and  _451
REMARK  186  A    between atoms: _450  and  _453
REMARK  187  A    between atoms: _453  and  _454
REMARK  188  A    between atoms: _459  and  _461
REMARK  189  A    between atoms: _461  and  _462
REMARK  190  A    between atoms: _461  and  _464
REMARK  191  A    between atoms: _464  and  _465
REMARK  192  A    between atoms: _475  and  _477
REMARK  193  A    between atoms: _477  and  _478
REMARK  194  A    between atoms: _477  and  _480
REMARK  195  A    between atoms: _483  and  _485
REMARK  196  A    between atoms: _485  and  _486
REMARK  197  A    between atoms: _485  and  _488
REMARK  198  A    between atoms: _488  and  _489
REMARK  199  A    between atoms: _489  and  _490
REMARK  200  A    between atoms: _490  and  _491
REMARK  201  A    between atoms: _491  and  _492
REMARK  202  A    between atoms: _496  and  _498
REMARK  203  A    between atoms: _498  and  _499
REMARK  204  A    between atoms: _498  and  _501
REMARK  205  A    between atoms: _501  and  _502
REMARK  206  A    between atoms: _502  and  _503
REMARK  207  A    between atoms: _506  and  _508
REMARK  208  A    between atoms: _508  and  _509
REMARK  209  A    between atoms: _508  and  _511
REMARK  210  A    between atoms: _511  and  _512
REMARK  211  A    between atoms: _515  and  _517
REMARK  212  A    between atoms: _517  and  _518
REMARK  213  A    between atoms: _517  and  _520
REMARK  214  A    between atoms: _520  and  _521
REMARK  215  A    between atoms: _521  and  _522
REMARK  216  A    between atoms: _522  and  _523
REMARK  217  A    between atoms: _532  and  _534
REMARK  218  A    between atoms: _534  and  _535
REMARK  219  A    between atoms: _534  and  _537
REMARK  220  A    between atoms: _537  and  _538
REMARK  221  A    between atoms: _543  and  _545
REMARK  222  A    between atoms: _545  and  _546
REMARK  223  A    between atoms: _545  and  _548
REMARK  224  A    between atoms: _548  and  _549
REMARK  225  A    between atoms: _552  and  _554
REMARK  226  A    between atoms: _554  and  _555
REMARK  227  A    between atoms: _554  and  _557
REMARK  228  A    between atoms: _557  and  _558
REMARK  229  A    between atoms: _563  and  _565
REMARK  230  A    between atoms: _565  and  _566
REMARK  231  A    between atoms: _565  and  _568
REMARK  232  A    between atoms: _568  and  _569
REMARK  233  A    between atoms: _569  and  _570
REMARK  234  A    between atoms: _570  and  _571
REMARK  235  A    between atoms: _580  and  _582
REMARK  236  A    between atoms: _582  and  _583
REMARK  237  A    between atoms: _582  and  _585
REMARK  238  A    between atoms: _585  and  _586
REMARK  239  A    between atoms: _586  and  _587
REMARK  240  A    between atoms: _589  and  _591
REMARK  241  A    between atoms: _591  and  _592
REMARK  242  A    between atoms: _591  and  _594
REMARK  243  A    between atoms: _594  and  _595
REMARK  244  A    between atoms: _595  and  _596
REMARK  245  A    between atoms: _598  and  _600
REMARK  246  A    between atoms: _600  and  _601
REMARK  247  A    between atoms: _600  and  _603
REMARK  248  A    between atoms: _603  and  _604
REMARK  249  A    between atoms: _604  and  _605
REMARK  250  A    between atoms: _605  and  _606
REMARK  251  A    between atoms: _606  and  _607
REMARK  252  A    between atoms: _611  and  _613
REMARK  253  A    between atoms: _613  and  _614
REMARK  254  A    between atoms: _613  and  _616
REMARK  255  A    between atoms: _616  and  _617
REMARK                            x       y       z     vdW  Elec       q    Type
REMARK                         _______ _______ _______ _____ _____    ______ ____
ROOT
ATOM      1  CA  MET A   1      57.682   4.957  40.286  0.00  0.00    +0.134 C 
ENDROOT
BRANCH   1   2
ATOM      2  N   MET A   1      56.543   5.824  39.979  0.00  0.00    -0.239 NA
ATOM      3  H   MET A   1      56.542   6.373  39.096  0.00  0.00    +0.142 HD
ENDBRANCH   1   2
BRANCH   1   4
ATOM      4  C   MET A   1      58.319   5.421  41.576  0.00  0.00    +0.224 C 
ATOM      5  O   MET A   1      58.803   4.620  42.361  0.00  0.00    -0.287 OA
ENDBRANCH   1   4
BRANCH   1   6
ATOM      6  CB  MET A   1      58.746   5.034  39.195  0.00  0.00    +0.037 C 
BRANCH   6   7
ATOM      7  CG  MET A   1      58.290   4.559  37.849  0.00  0.00    +0.059 C 
BRANCH   7   8
ATOM      8  SD  MET A   1      59.645   4.721  36.694  0.00  0.00    -0.139 S 
ATOM      9  CE  MET A   1      60.749   3.429  37.268  0.00  0.00    +0.069 C 
ENDBRANCH   7   8
ENDBRANCH   6   7
ENDBRANCH   1   6
TORSDOF 5
REMARK  Name = ../refined-set-2016/1x8t/1x8t_pocket.pdb
REMARK  255 active torsions:
REMARK  status: ('A' for Active; 'I' for Inactive)
REMARK    1  A    between atoms: _1  and  _3
REMARK    2  A    between atoms: _3  and  _4
REMARK    3  A    between atoms: _3  and  _6
REMARK    4  A    between atoms: _6  and  _7
REMARK    5  A    between atoms: _9  and  _11
REMARK    6  A    between atoms: _11  and  _12
REMARK    7  A    between atoms: _11  and  _14
REMARK    8  A    between atoms: _14  and  _15
REMARK    9  A    between atoms: _15  and  _16
REMARK   10  A    between atoms: _16  and  _17
REMARK   11  A    between atoms: _17  and  _18
REMARK   12  A    between atoms: _22  and  _24
REMARK   13  A    between atoms: _24  and  _25
REMARK   14  A    between atoms: _24  and  _27
REMARK   15  A    between atoms: _27  and  _28
REMARK   16  A    between atoms: _30  and  _32
REMARK   17  A    between atoms: _32  and  _33
REMARK   18  A    between atoms: _32  and  _35
REMARK   19  A    between atoms: _38  and  _40
REMARK   20  A    between atoms: _40  and  _41
REMARK   21  A    between atoms: _40  and  _43
REMARK   22  A    between atoms: _43  and  _44
REMARK   23  A    between atoms: _46  and  _48
REMARK   24  A    between atoms: _48  and  _49
REMARK   25  A    between atoms: _48  and  _51
REMARK   26  A    between atoms: _51  and  _52
REMARK   27  A    between atoms: _57  and  _59
REMARK   28  A    between atoms: _59  and  _60
REMARK   29  A    between atoms: _59  and  _62
REMARK   30  A    between atoms: _62  and  _63
REMARK   31  A    between atoms: _63  and  _64
REMARK   32  A    between atoms: _64  and  _65
REMARK   33  A    between atoms: _74  and  _76
REMARK   34  A    between atoms: _76  and  _77
REMARK   35  A    between atoms: _76  and  _79
REMARK   36  A    between atoms: _79  and  _80
REMARK   37  A    between atoms: _83  and  _85
REMARK   38  A    between atoms: _85  and  _86
REMARK   39  A    between atoms: _85  and  _88
REMARK   40  A    between atoms: _88  and  _89
REMARK   41  A    between atoms: _94  and  _96
REMARK   42  A    between atoms: _96  and  _97
REMARK   43  A    between atoms: _100  and  _102
REMARK   44  A    between atoms: _102  and  _103
REMARK   45  A    between atoms: _105  and  _107
REMARK   46  A    between atoms: _107  and  _108
REMARK   47  A    between atoms: _107  and  _110
REMARK   48  A    between atoms: _110  and  _111
REMARK   49  A    between atoms: _114  and  _116
REMARK   50  A    between atoms: _116  and  _117
REMARK   51  A    between atoms: _120  and  _122
REMARK   52  A    between atoms: _122  and  _123
REMARK   53  A    between atoms: _122  and  _125
REMARK   54  A    between atoms: _125  and  _126
REMARK   55  A    between atoms: _126  and  _127
REMARK   56  A    between atoms: _129  and  _131
REMARK   57  A    between atoms: _131  and  _132
REMARK   58  A    between atoms: _131  and  _134
REMARK   59  A    between atoms: _134  and  _135
REMARK   60  A    between atoms: _135  and  _136
REMARK   61  A    between atoms: _136  and  _137
REMARK   62  A    between atoms: _147  and  _148
REMARK   63  A    between atoms: _153  and  _155
REMARK   64  A    between atoms: _155  and  _156
REMARK   65  A    between atoms: _155  and  _158
REMARK   66  A    between atoms: _158  and  _159
REMARK   67  A    between atoms: _159  and  _160
REMARK   68  A    between atoms: _160  and  _161
REMARK   69  A    between atoms: _171  and  _172
REMARK   70  A    between atoms: _177  and  _179
REMARK   71  A    between atoms: _179  and  _180
REMARK   72  A    between atoms: _182  and  _184
REMARK   73  A    between atoms: _184  and  _185
REMARK   74  A    between atoms: _184  and  _187
REMARK   75  A    between atoms: _187  and  _188
REMARK   76  A    between atoms: _190  and  _192
REMARK   77  A    between atoms: _192  and  _193
REMARK   78  A    between atoms: _192  and  _195
REMARK   79  A    between atoms: _198  and  _200
REMARK   80  A    between atoms: _200  and  _201
REMARK   81  A    between atoms: _200  and  _203
REMARK   82  A    between atoms: _203  and  _204
REMARK   83  A    between atoms: _206  and  _208
REMARK   84  A    between atoms: _208  and  _209
REMARK   85  A    between atoms: _208  and  _211
REMARK   86  A    between atoms: _211  and  _212
REMARK   87  A    between atoms: _214  and  _216
REMARK   88  A    between atoms: _216  and  _217
REMARK   89  A    between atoms: _216  and  _219
REMARK   90  A    between atoms: _219  and  _220
REMARK   91  A    between atoms: _220  and  _221
REMARK   92  A    between atoms: _226  and  _228
REMARK   93  A    between atoms: _228  and  _229
REMARK   94  A    between atoms: _228  and  _231
REMARK   95  A    between atoms: _231  and  _232
REMARK   96  A    between atoms: _238  and  _240
REMARK   97  A    between atoms: _240  and  _241
REMARK   98  A    between atoms: _240  and  _243
REMARK   99  A    between atoms: _243  and  _244
REMARK  100  A    between atoms: _247  and  _249
REMARK  101  A    between atoms: _249  and  _250
REMARK  102  A    between atoms: _249  and  _252
REMARK  103  A    between atoms: _252  and  _253
REMARK  104  A    between atoms: _256  and  _258
REMARK  105  A    between atoms: _258  and  _259
REMARK  106  A    between atoms: _262  and  _264
REMARK  107  A    between atoms: _264  and  _265
REMARK  108  A    between atoms: _264  and  _267
REMARK  109  A    between atoms: _267  and  _268
REMARK  110  A    between atoms: _268  and  _269
REMARK  111  A    between atoms: _271  and  _273
REMARK  112  A    between atoms: _273  and  _274
REMARK  113  A    between atoms: _273  and  _276
REMARK  114  A    between atoms: _276  and  _277
REMARK  115  A    between atoms: _280  and  _282
REMARK  116  A    between atoms: _282  and  _283
REMARK  117  A    between atoms: _282  and  _285
REMARK  118  A    between atoms: _288  and  _290
REMARK  119  A    between atoms: _290  and  _291
REMARK  120  A    between atoms: _290  and  _293
REMARK  121  A    between atoms: _293  and  _294
REMARK  122  A    between atoms: _296  and  _298
REMARK  123  A    between atoms: _298  and  _299
REMARK  124  A    between atoms: _298  and  _301
REMARK  125  A    between atoms: _301  and  _302
REMARK  126  A    between atoms: _302  and  _303
REMARK  127  A    between atoms: _303  and  _304
REMARK  128  A    between atoms: _304  and  _305
REMARK  129  A    between atoms: _310  and  _311
REMARK  130  A    between atoms: _316  and  _318
REMARK  131  A    between atoms: _318  and  _319
REMARK  132  A    between atoms: _318  and  _321
REMARK  133  A    between atoms: _321  and  _322
REMARK  134  A    between atoms: _327  and  _328
REMARK  135  A    between atoms: _330  and  _332
REMARK  136  A    between atoms: _332  and  _333
REMARK  137  A    between atoms: _332  and  _335
REMARK  138  A    between atoms: _335  and  _336
REMARK  139  A    between atoms: _339  and  _341
REMARK  140  A    between atoms: _341  and  _342
REMARK  141  A    between atoms: _341  and  _344
REMARK  142  A    between atoms: _344  and  _345
REMARK  143  A    between atoms: _348  and  _350
REMARK  144  A    between atoms: _350  and  _351
REMARK  145  A    between atoms: _350  and  _353
REMARK  146  A    between atoms: _353  and  _354
REMARK  147  A    between atoms: _357  and  _359
REMARK  148  A    between atoms: _359  and  _360
REMARK  149  A    between atoms: _359  and  _362
REMARK  150  A    between atoms: _362  and  _363
REMARK  151  A    between atoms: _366  and  _368
REMARK  152  A    between atoms: _368  and  _369
REMARK  153  A    between atoms: _368  and  _371
REMARK  154  A    between atoms: _371  and  _372
REMARK  155  A    between atoms: _374  and  _376
REMARK  156  A    between atoms: _376  and  _377
REMARK  157  A    between atoms: _376  and  _379
REMARK  158  A    between atoms: _379  and  _380
REMARK  159  A    between atoms: _385  and  _386
REMARK  160  A    between atoms: _388  and  _390
REMARK  161  A    between atoms: _390  and  _391
REMARK  162  A    between atoms: _390  and  _393
REMARK  163  A    between atoms: _393  and  _394
REMARK  164  A    between atoms: _397  and  _399
REMARK  165  A    between atoms: _399  and  _400
REMARK  166  A    between atoms: _399  and  _402
REMARK  167  A    between atoms: _402  and  _403
REMARK  168  A    between atoms: _408  and  _410
REMARK  169  A    between atoms: _410  and  _411
REMARK  170  A    between atoms: _410  and  _413
REMARK  171  A    between atoms: _413  and  _414
REMARK  172  A    between atoms: _418  and  _419
REMARK  173  A    between atoms: _424  and  _426
REMARK  174  A    between atoms: _426  and  _427
REMARK  175  A    between atoms: _426  and  _429
REMARK  176  A    between atoms: _429  and  _430
REMARK  177  A    between atoms: _433  and  _435
REMARK  178  A    between atoms: _435  and  _436
REMARK  179  A    between atoms: _439  and  _441
REMARK  180  A    between atoms: _441  and  _442
REMARK  181  A    between atoms: _441  and  _444
REMARK  182  A    between atoms: _444  and  _445
REMARK  183  A    between atoms: _445  and  _446
REMARK  184  A    between atoms: _448  and  _450
REMARK  185  A    between atoms: _450  and  _451
REMARK  186  A    between atoms: _450  and  _453
REMARK  187  A    between atoms: _453  and  _454
REMARK  188  A    between atoms: _459  and  _461
REMARK  189  A    between atoms: _461  and  _462
REMARK  190  A    between atoms: _461  and  _464
REMARK  191  A    between atoms: _464  and  _465
REMARK  192  A    between atoms: _475  and  _477
REMARK  193  A    between atoms: _477  and  _478
REMARK  194  A    between atoms: _477  and  _480
REMARK  195  A    between atoms: _483  and  _485
REMARK  196  A    between atoms: _485  and  _486
REMARK  197  A    between atoms: _485  and  _488
REMARK  198  A    between atoms: _488  and  _489
REMARK  199  A    between atoms: _489  and  _490
REMARK  200  A    between atoms: _490  and  _491
REMARK  201  A    between atoms: _491  and  _492
REMARK  202  A    between atoms: _496  and  _498
REMARK  203  A    between atoms: _498  and  _499
REMARK  204  A    between atoms: _498  and  _501
REMARK  205  A    between atoms: _501  and  _502
REMARK  206  A    between atoms: _502  and  _503
REMARK  207  A    between atoms: _506  and  _508
REMARK  208  A    between atoms: _508  and  _509
REMARK  209  A    between atoms: _508  and  _511
REMARK  210  A    between atoms: _511  and  _512
REMARK  211  A    between atoms: _515  and  _517
REMARK  212  A    between atoms: _517  and  _518
REMARK  213  A    between atoms: _517  and  _520
REMARK  214  A    between atoms: _520  and  _521
REMARK  215  A    between atoms: _521  and  _522
REMARK  216  A    between atoms: _522  and  _523
REMARK  217  A    between atoms: _532  and  _534
REMARK  218  A    between atoms: _534  and  _535
REMARK  219  A    between atoms: _534  and  _537
REMARK  220  A    between atoms: _537  and  _538
REMARK  221  A    between atoms: _543  and  _545
REMARK  222  A    between atoms: _545  and  _546
REMARK  223  A    between atoms: _545  and  _548
REMARK  224  A    between atoms: _548  and  _549
REMARK  225  A    between atoms: _552  and  _554
REMARK  226  A    between atoms: _554  and  _555
REMARK  227  A    between atoms: _554  and  _557
REMARK  228  A    between atoms: _557  and  _558
REMARK  229  A    between atoms: _563  and  _565
REMARK  230  A    between atoms: _565  and  _566
REMARK  231  A    between atoms: _565  and  _568
REMARK  232  A    between atoms: _568  and  _569
REMARK  233  A    between atoms: _569  and  _570
REMARK  234  A    between atoms: _570  and  _571
REMARK  235  A    between atoms: _580  and  _582
REMARK  236  A    between atoms: _582  and  _583
REMARK  237  A    between atoms: _582  and  _585
REMARK  238  A    between atoms: _585  and  _586
REMARK  239  A    between atoms: _586  and  _587
REMARK  240  A    between atoms: _589  and  _591
REMARK  241  A    between atoms: _591  and  _592
REMARK  242  A    between atoms: _591  and  _594
REMARK  243  A    between atoms: _594  and  _595
REMARK  244  A    between atoms: _595  and  _596
REMARK  245  A    between atoms: _598  and  _600
REMARK  246  A    between atoms: _600  and  _601
REMARK  247  A    between atoms: _600  and  _603
REMARK  248  A    between atoms: _603  and  _604
REMARK  249  A    between atoms: _604  and  _605
REMARK  250  A    between atoms: _605  and  _606
REMARK  251  A    between atoms: _606  and  _607
REMARK  252  A    between atoms: _611  and  _613
REMARK  253  A    between atoms: _613  and  _614
REMARK  254  A    between atoms: _613  and  _616
REMARK  255  A    between atoms: _616  and  _617
REMARK                            x       y       z     vdW  Elec       q    Type
REMARK                         _______ _______ _______ _____ _____    ______ ____
ROOT
ATOM      1  CA  TRP A   2      55.475   1.011  32.782  0.00  0.00    +0.141 C 
ENDROOT
BRANCH   1   3
ATOM      2  C   ASN A   1      54.090   1.367  30.826  0.00  0.00    +0.239 C 
ATOM      3  N   TRP A   2      54.191   0.992  32.096  0.00  0.00    -0.298 N 
ATOM      4  H   TRP A   2      53.341   0.680  32.608  0.00  0.00    +0.150 HD
ATOM      5  O   ASN A   1      55.028   1.833  30.189  0.00  0.00    -0.274 OA
BRANCH   2   6
ATOM      6  CA  ASN A   1      52.725   1.161  30.186  0.00  0.00    +0.154 C 
BRANCH   6   7
ATOM      7  N   ASN A   1      51.663   0.689  31.072  0.00  0.00    -0.238 NA
ATOM      8  H   ASN A   1      50.844   1.288  31.301  0.00  0.00    +0.142 HD
ENDBRANCH   6   7
BRANCH   6   9
ATOM      9  CB  ASN A   1      52.263   2.358  29.310  0.00  0.00    +0.111 C 
BRANCH   9  10
ATOM     10  CG  ASN A   1      52.291   3.701  30.009  0.00  0.00    +0.221 C 
ATOM     11  ND2 ASN A   1      52.853   3.760  31.205  0.00  0.00    -0.329 N 
ATOM     12 HD21 ASN A   1      52.906   4.667  31.710  0.00  0.00    +0.145 HD
ATOM     13 HD22 ASN A   1      53.241   2.899  31.640  0.00  0.00    +0.145 HD
ATOM     14  OD1 ASN A   1      51.810   4.700  29.441  0.00  0.00    -0.275 OA
ENDBRANCH   9  10
ENDBRANCH   6   9
ENDBRANCH   2   6
ENDBRANCH   1   3
BRANCH   1  15
ATOM     15  C   TRP A   2      56.275  -0.027  31.989  0.00  0.00    +0.227 C 
ATOM     16  O   TRP A   2      57.496   0.064  31.852  0.00  0.00    -0.286 OA
ENDBRANCH   1  15
BRANCH   1  17
ATOM     17  CB  TRP A   2      55.312   0.495  34.211  0.00  0.00    +0.056 C 
BRANCH  17  18
ATOM     18  CG  TRP A   2      55.135   1.568  35.248  0.00  0.00    -0.002 A 
ATOM     19  CD2 TRP A   2      55.475   1.475  36.635  0.00  0.00    +0.013 A 
ATOM     20  CE3 TRP A   2      56.077   0.485  37.422  0.00  0.00    +0.001 A 
ATOM     21  CZ3 TRP A   2      56.263   0.730  38.783  0.00  0.00    +0.000 A 
ATOM     22  CH2 TRP A   2      55.857   1.945  39.361  0.00  0.00    +0.001 A 
ATOM     23  CZ2 TRP A   2      55.264   2.928  38.614  0.00  0.00    +0.017 A 
ATOM     24  CE2 TRP A   2      55.077   2.682  37.246  0.00  0.00    +0.056 A 
ATOM     25  NE1 TRP A   2      54.523   3.471  36.273  0.00  0.00    -0.352 N 
ATOM     26  HE1 TRP A   2      54.134   4.425  36.415  0.00  0.00    +0.166 HD
ATOM     27  CD1 TRP A   2      54.566   2.790  35.074  0.00  0.00    +0.068 A 
ENDBRANCH  17  18
ENDBRANCH   1  17
TORSDOF 8
REMARK  Name = ../refined-set-2016/1x8t/1x8t_pocket.pdb
REMARK  255 active torsions:
REMARK  status: ('A' for Active; 'I' for Inactive)
REMARK    1  A    between atoms: _1  and  _3
REMARK    2  A    between atoms: _3  and  _4
REMARK    3  A    between atoms: _3  and  _6
REMARK    4  A    between atoms: _6  and  _7
REMARK    5  A    between atoms: _9  and  _11
REMARK    6  A    between atoms: _11  and  _12
REMARK    7  A    between atoms: _11  and  _14
REMARK    8  A    between atoms: _14  and  _15
REMARK    9  A    between atoms: _15  and  _16
REMARK   10  A    between atoms: _16  and  _17
REMARK   11  A    between atoms: _17  and  _18
REMARK   12  A    between atoms: _22  and  _24
REMARK   13  A    between atoms: _24  and  _25
REMARK   14  A    between atoms: _24  and  _27
REMARK   15  A    between atoms: _27  and  _28
REMARK   16  A    between atoms: _30  and  _32
REMARK   17  A    between atoms: _32  and  _33
REMARK   18  A    between atoms: _32  and  _35
REMARK   19  A    between atoms: _38  and  _40
REMARK   20  A    between atoms: _40  and  _41
REMARK   21  A    between atoms: _40  and  _43
REMARK   22  A    between atoms: _43  and  _44
REMARK   23  A    between atoms: _46  and  _48
REMARK   24  A    between atoms: _48  and  _49
REMARK   25  A    between atoms: _48  and  _51
REMARK   26  A    between atoms: _51  and  _52
REMARK   27  A    between atoms: _57  and  _59
REMARK   28  A    between atoms: _59  and  _60
REMARK   29  A    between atoms: _59  and  _62
REMARK   30  A    between atoms: _62  and  _63
REMARK   31  A    between atoms: _63  and  _64
REMARK   32  A    between atoms: _64  and  _65
REMARK   33  A    between atoms: _74  and  _76
REMARK   34  A    between atoms: _76  and  _77
REMARK   35  A    between atoms: _76  and  _79
REMARK   36  A    between atoms: _79  and  _80
REMARK   37  A    between atoms: _83  and  _85
REMARK   38  A    between atoms: _85  and  _86
REMARK   39  A    between atoms: _85  and  _88
REMARK   40  A    between atoms: _88  and  _89
REMARK   41  A    between atoms: _94  and  _96
REMARK   42  A    between atoms: _96  and  _97
REMARK   43  A    between atoms: _100  and  _102
REMARK   44  A    between atoms: _102  and  _103
REMARK   45  A    between atoms: _105  and  _107
REMARK   46  A    between atoms: _107  and  _108
REMARK   47  A    between atoms: _107  and  _110
REMARK   48  A    between atoms: _110  and  _111
REMARK   49  A    between atoms: _114  and  _116
REMARK   50  A    between atoms: _116  and  _117
REMARK   51  A    between atoms: _120  and  _122
REMARK   52  A    between atoms: _122  and  _123
REMARK   53  A    between atoms: _122  and  _125
REMARK   54  A    between atoms: _125  and  _126
REMARK   55  A    between atoms: _126  and  _127
REMARK   56  A    between atoms: _129  and  _131
REMARK   57  A    between atoms: _131  and  _132
REMARK   58  A    between atoms: _131  and  _134
REMARK   59  A    between atoms: _134  and  _135
REMARK   60  A    between atoms: _135  and  _136
REMARK   61  A    between atoms: _136  and  _137
REMARK   62  A    between atoms: _147  and  _148
REMARK   63  A    between atoms: _153  and  _155
REMARK   64  A    between atoms: _155  and  _156
REMARK   65  A    between atoms: _155  and  _158
REMARK   66  A    between atoms: _158  and  _159
REMARK   67  A    between atoms: _159  and  _160
REMARK   68  A    between atoms: _160  and  _161
REMARK   69  A    between atoms: _171  and  _172
REMARK   70  A    between atoms: _177  and  _179
REMARK   71  A    between atoms: _179  and  _180
REMARK   72  A    between atoms: _182  and  _184
REMARK   73  A    between atoms: _184  and  _185
REMARK   74  A    between atoms: _184  and  _187
REMARK   75  A    between atoms: _187  and  _188
REMARK   76  A    between atoms: _190  and  _192
REMARK   77  A    between atoms: _192  and  _193
REMARK   78  A    between atoms: _192  and  _195
REMARK   79  A    between atoms: _198  and  _200
REMARK   80  A    between atoms: _200  and  _201
REMARK   81  A    between atoms: _200  and  _203
REMARK   82  A    between atoms: _203  and  _204
REMARK   83  A    between atoms: _206  and  _208
REMARK   84  A    between atoms: _208  and  _209
REMARK   85  A    between atoms: _208  and  _211
REMARK   86  A    between atoms: _211  and  _212
REMARK   87  A    between atoms: _214  and  _216
REMARK   88  A    between atoms: _216  and  _217
REMARK   89  A    between atoms: _216  and  _219
REMARK   90  A    between atoms: _219  and  _220
REMARK   91  A    between atoms: _220  and  _221
REMARK   92  A    between atoms: _226  and  _228
REMARK   93  A    between atoms: _228  and  _229
REMARK   94  A    between atoms: _228  and  _231
REMARK   95  A    between atoms: _231  and  _232
REMARK   96  A    between atoms: _238  and  _240
REMARK   97  A    between atoms: _240  and  _241
REMARK   98  A    between atoms: _240  and  _243
REMARK   99  A    between atoms: _243  and  _244
REMARK  100  A    between atoms: _247  and  _249
REMARK  101  A    between atoms: _249  and  _250
REMARK  102  A    between atoms: _249  and  _252
REMARK  103  A    between atoms: _252  and  _253
REMARK  104  A    between atoms: _256  and  _258
REMARK  105  A    between atoms: _258  and  _259
REMARK  106  A    between atoms: _262  and  _264
REMARK  107  A    between atoms: _264  and  _265
REMARK  108  A    between atoms: _264  and  _267
REMARK  109  A    between atoms: _267  and  _268
REMARK  110  A    between atoms: _268  and  _269
REMARK  111  A    between atoms: _271  and  _273
REMARK  112  A    between atoms: _273  and  _274
REMARK  113  A    between atoms: _273  and  _276
REMARK  114  A    between atoms: _276  and  _277
REMARK  115  A    between atoms: _280  and  _282
REMARK  116  A    between atoms: _282  and  _283
REMARK  117  A    between atoms: _282  and  _285
REMARK  118  A    between atoms: _288  and  _290
REMARK  119  A    between atoms: _290  and  _291
REMARK  120  A    between atoms: _290  and  _293
REMARK  121  A    between atoms: _293  and  _294
REMARK  122  A    between atoms: _296  and  _298
REMARK  123  A    between atoms: _298  and  _299
REMARK  124  A    between atoms: _298  and  _301
REMARK  125  A    between atoms: _301  and  _302
REMARK  126  A    between atoms: _302  and  _303
REMARK  127  A    between atoms: _303  and  _304
REMARK  128  A    between atoms: _304  and  _305
REMARK  129  A    between atoms: _310  and  _311
REMARK  130  A    between atoms: _316  and  _318
REMARK  131  A    between atoms: _318  and  _319
REMARK  132  A    between atoms: _318  and  _321
REMARK  133  A    between atoms: _321  and  _322
REMARK  134  A    between atoms: _327  and  _328
REMARK  135  A    between atoms: _330  and  _332
REMARK  136  A    between atoms: _332  and  _333
REMARK  137  A    between atoms: _332  and  _335
REMARK  138  A    between atoms: _335  and  _336
REMARK  139  A    between atoms: _339  and  _341
REMARK  140  A    between atoms: _341  and  _342
REMARK  141  A    between atoms: _341  and  _344
REMARK  142  A    between atoms: _344  and  _345
REMARK  143  A    between atoms: _348  and  _350
REMARK  144  A    between atoms: _350  and  _351
REMARK  145  A    between atoms: _350  and  _353
REMARK  146  A    between atoms: _353  and  _354
REMARK  147  A    between atoms: _357  and  _359
REMARK  148  A    between atoms: _359  and  _360
REMARK  149  A    between atoms: _359  and  _362
REMARK  150  A    between atoms: _362  and  _363
REMARK  151  A    between atoms: _366  and  _368
REMARK  152  A    between atoms: _368  and  _369
REMARK  153  A    between atoms: _368  and  _371
REMARK  154  A    between atoms: _371  and  _372
REMARK  155  A    between atoms: _374  and  _376
REMARK  156  A    between atoms: _376  and  _377
REMARK  157  A    between atoms: _376  and  _379
REMARK  158  A    between atoms: _379  and  _380
REMARK  159  A    between atoms: _385  and  _386
REMARK  160  A    between atoms: _388  and  _390
REMARK  161  A    between atoms: _390  and  _391
REMARK  162  A    between atoms: _390  and  _393
REMARK  163  A    between atoms: _393  and  _394
REMARK  164  A    between atoms: _397  and  _399
REMARK  165  A    between atoms: _399  and  _400
REMARK  166  A    between atoms: _399  and  _402
REMARK  167  A    between atoms: _402  and  _403
REMARK  168  A    between atoms: _408  and  _410
REMARK  169  A    between atoms: _410  and  _411
REMARK  170  A    between atoms: _410  and  _413
REMARK  171  A    between atoms: _413  and  _414
REMARK  172  A    between atoms: _418  and  _419
REMARK  173  A    between atoms: _424  and  _426
REMARK  174  A    between atoms: _426  and  _427
REMARK  175  A    between atoms: _426  and  _429
REMARK  176  A    between atoms: _429  and  _430
REMARK  177  A    between atoms: _433  and  _435
REMARK  178  A    between atoms: _435  and  _436
REMARK  179  A    between atoms: _439  and  _441
REMARK  180  A    between atoms: _441  and  _442
REMARK  181  A    between atoms: _441  and  _444
REMARK  182  A    between atoms: _444  and  _445
REMARK  183  A    between atoms: _445  and  _446
REMARK  184  A    between atoms: _448  and  _450
REMARK  185  A    between atoms: _450  and  _451
REMARK  186  A    between atoms: _450  and  _453
REMARK  187  A    between atoms: _453  and  _454
REMARK  188  A    between atoms: _459  and  _461
REMARK  189  A    between atoms: _461  and  _462
REMARK  190  A    between atoms: _461  and  _464
REMARK  191  A    between atoms: _464  and  _465
REMARK  192  A    between atoms: _475  and  _477
REMARK  193  A    between atoms: _477  and  _478
REMARK  194  A    between atoms: _477  and  _480
REMARK  195  A    between atoms: _483  and  _485
REMARK  196  A    between atoms: _485  and  _486
REMARK  197  A    between atoms: _485  and  _488
REMARK  198  A    between atoms: _488  and  _489
REMARK  199  A    between atoms: _489  and  _490
REMARK  200  A    between atoms: _490  and  _491
REMARK  201  A    between atoms: _491  and  _492
REMARK  202  A    between atoms: _496  and  _498
REMARK  203  A    between atoms: _498  and  _499
REMARK  204  A    between atoms: _498  and  _501
REMARK  205  A    between atoms: _501  and  _502
REMARK  206  A    between atoms: _502  and  _503
REMARK  207  A    between atoms: _506  and  _508
REMARK  208  A    between atoms: _508  and  _509
REMARK  209  A    between atoms: _508  and  _511
REMARK  210  A    between atoms: _511  and  _512
REMARK  211  A    between atoms: _515  and  _517
REMARK  212  A    between atoms: _517  and  _518
REMARK  213  A    between atoms: _517  and  _520
REMARK  214  A    between atoms: _520  and  _521
REMARK  215  A    between atoms: _521  and  _522
REMARK  216  A    between atoms: _522  and  _523
REMARK  217  A    between atoms: _532  and  _534
REMARK  218  A    between atoms: _534  and  _535
REMARK  219  A    between atoms: _534  and  _537
REMARK  220  A    between atoms: _537  and  _538
REMARK  221  A    between atoms: _543  and  _545
REMARK  222  A    between atoms: _545  and  _546
REMARK  223  A    between atoms: _545  and  _548
REMARK  224  A    between atoms: _548  and  _549
REMARK  225  A    between atoms: _552  and  _554
REMARK  226  A    between atoms: _554  and  _555
REMARK  227  A    between atoms: _554  and  _557
REMARK  228  A    between atoms: _557  and  _558
REMARK  229  A    between atoms: _563  and  _565
REMARK  230  A    between atoms: _565  and  _566
REMARK  231  A    between atoms: _565  and  _568
REMARK  232  A    between atoms: _568  and  _569
REMARK  233  A    between atoms: _569  and  _570
REMARK  234  A    between atoms: _570  and  _571
REMARK  235  A    between atoms: _580  and  _582
REMARK  236  A    between atoms: _582  and  _583
REMARK  237  A    between atoms: _582  and  _585
REMARK  238  A    between atoms: _585  and  _586
REMARK  239  A    between atoms: _586  and  _587
REMARK  240  A    between atoms: _589  and  _591
REMARK  241  A    between atoms: _591  and  _592
REMARK  242  A    between atoms: _591  and  _594
REMARK  243  A    between atoms: _594  and  _595
REMARK  244  A    between atoms: _595  and  _596
REMARK  245  A    between atoms: _598  and  _600
REMARK  246  A    between atoms: _600  and  _601
REMARK  247  A    between atoms: _600  and  _603
REMARK  248  A    between atoms: _603  and  _604
REMARK  249  A    between atoms: _604  and  _605
REMARK  250  A    between atoms: _605  and  _606
REMARK  251  A    between atoms: _606  and  _607
REMARK  252  A    between atoms: _611  and  _613
REMARK  253  A    between atoms: _613  and  _614
REMARK  254  A    between atoms: _613  and  _616
REMARK  255  A    between atoms: _616  and  _617
REMARK                            x       y       z     vdW  Elec       q    Type
REMARK                         _______ _______ _______ _____ _____    ______ ____
ROOT
ATOM      1  C   LYS A   2      60.711   2.089  28.526  0.00  0.00    +0.241 C 
ATOM      2  N   GLU A   3      61.549   2.935  29.130  0.00  0.00    -0.297 N 
ATOM      3  H   GLU A   3      61.167   3.773  29.614  0.00  0.00    +0.150 HD
ATOM      4  O   LYS A   2      61.097   1.071  27.959  0.00  0.00    -0.273 OA
ENDROOT
BRANCH   2   5
ATOM      5  CA  GLU A   3      63.003   2.706  29.125  0.00  0.00    +0.149 C 
BRANCH   5   6
ATOM      6  C   GLU A   3      63.392   1.261  29.395  0.00  0.00    +0.241 C 
ATOM      7  N   THR A   4      62.558   0.583  30.169  0.00  0.00    -0.296 N 
ATOM      8  H   THR A   4      61.745   1.086  30.579  0.00  0.00    +0.150 HD
ATOM      9  O   GLU A   3      64.423   0.780  28.929  0.00  0.00    -0.273 OA
BRANCH   7  10
ATOM     10  CA  THR A   4      62.722  -0.824  30.472  0.00  0.00    +0.164 C 
BRANCH  10  11
ATOM     11  C   THR A   4      61.336  -1.216  30.935  0.00  0.00    +0.229 C 
ATOM     12  O   THR A   4      60.450  -0.365  31.000  0.00  0.00    -0.286 OA
ENDBRANCH  10  11
BRANCH  10  13
ATOM     13  CB  THR A   4      63.729  -1.088  31.610  0.00  0.00    +0.136 C 
ATOM     14  CG2 THR A   4      63.198  -0.568  32.950  0.00  0.00    +0.034 C 
BRANCH  13  15
ATOM     15  OG1 THR A   4      63.931  -2.504  31.725  0.00  0.00    -0.382 OA
ATOM     16  HG1 THR A   4      64.287  -2.856  30.871  0.00  0.00    +0.210 HD
ENDBRANCH  13  15
ENDBRANCH  10  13
ENDBRANCH   7  10
ENDBRANCH   5   6
BRANCH   5  17
ATOM     17  CB  GLU A   3      63.701   3.640  30.115  0.00  0.00    +0.041 C 
BRANCH  17  18
ATOM     18  CG  GLU A   3      63.713   5.078  29.641  0.00  0.00    +0.116 C 
BRANCH  18  19
ATOM     19  CD  GLU A   3      64.375   5.229  28.280  0.00  0.00    +0.365 C 
ATOM     20  OE2 GLU A   3      65.625   5.260  28.228  0.00  0.00    -0.246 OA
ATOM     21  OE1 GLU A   3      63.638   5.300  27.266  0.00  0.00    -0.246 OA
ENDBRANCH  18  19
ENDBRANCH  17  18
ENDBRANCH   5  17
ENDBRANCH   2   5
BRANCH   1  22
ATOM     22  CA  LYS A   2      59.219   2.414  28.521  0.00  0.00    +0.149 C 
BRANCH  22  24
ATOM     23  C   VAL A   1      57.819   0.830  27.368  0.00  0.00    +0.238 C 
ATOM     24  N   LYS A   2      58.358   1.243  28.510  0.00  0.00    -0.297 N 
ATOM     25  H   LYS A   2      58.164   0.730  29.394  0.00  0.00    +0.150 HD
ATOM     26  O   VAL A   1      58.039   1.383  26.288  0.00  0.00    -0.274 OA
BRANCH  23  27
ATOM     27  CA  VAL A   1      56.922  -0.387  27.431  0.00  0.00    +0.145 C 
BRANCH  27  28
ATOM     28  CB  VAL A   1      55.787  -0.204  26.403  0.00  0.00    +0.025 C 
ATOM     29  CG2 VAL A   1      54.895   0.960  26.815  0.00  0.00    +0.002 C 
ATOM     30  CG1 VAL A   1      54.972  -1.486  26.308  0.00  0.00    +0.002 C 
ENDBRANCH  27  28
BRANCH  27  31
ATOM     31  N   VAL A   1      56.372  -0.698  28.752  0.00  0.00    -0.238 NA
ATOM     32  H   VAL A   1      55.647  -0.086  29.179  0.00  0.00    +0.142 HD
ENDBRANCH  27  31
ENDBRANCH  23  27
ENDBRANCH  22  24
BRANCH  22  33
ATOM     33  CB  LYS A   2      58.793   3.325  29.666  0.00  0.00    +0.029 C 
BRANCH  33  34
ATOM     34  CG  LYS A   2      57.499   4.027  29.287  0.00  0.00    +0.000 C 
BRANCH  34  35
ATOM     35  CD  LYS A   2      56.749   4.681  30.435  0.00  0.00    -0.024 C 
BRANCH  35  36
ATOM     36  CE  LYS A   2      55.557   5.438  29.865  0.00  0.00    -0.086 C 
BRANCH  36  37
ATOM     37  NZ  LYS A   2      54.814   6.225  30.908  0.00  0.00    +0.380 N 
ATOM     38  HZ1 LYS A   2      54.459   5.578  31.641  0.00  0.00    -0.089 HD
ATOM     39  HZ2 LYS A   2      55.456   6.920  31.339  0.00  0.00    -0.089 HD
ATOM     40  HZ3 LYS A   2      54.014   6.719  30.463  0.00  0.00    -0.089 HD
ENDBRANCH  36  37
ENDBRANCH  35  36
ENDBRANCH  34  35
ENDBRANCH  33  34
ENDBRANCH  22  33
ENDBRANCH   1  22
TORSDOF 19
REMARK  Name = ../refined-set-2016/1x8t/1x8t_pocket.pdb
REMARK  255 active torsions:
REMARK  status: ('A' for Active; 'I' for Inactive)
REMARK    1  A    between atoms: _1  and  _3
REMARK    2  A    between atoms: _3  and  _4
REMARK    3  A    between atoms: _3  and  _6
REMARK    4  A    between atoms: _6  and  _7
REMARK    5  A    between atoms: _9  and  _11
REMARK    6  A    between atoms: _11  and  _12
REMARK    7  A    between atoms: _11  and  _14
REMARK    8  A    between atoms: _14  and  _15
REMARK    9  A    between atoms: _15  and  _16
REMARK   10  A    between atoms: _16  and  _17
REMARK   11  A    between atoms: _17  and  _18
REMARK   12  A    between atoms: _22  and  _24
REMARK   13  A    between atoms: _24  and  _25
REMARK   14  A    between atoms: _24  and  _27
REMARK   15  A    between atoms: _27  and  _28
REMARK   16  A    between atoms: _30  and  _32
REMARK   17  A    between atoms: _32  and  _33
REMARK   18  A    between atoms: _32  and  _35
REMARK   19  A    between atoms: _38  and  _40
REMARK   20  A    between atoms: _40  and  _41
REMARK   21  A    between atoms: _40  and  _43
REMARK   22  A    between atoms: _43  and  _44
REMARK   23  A    between atoms: _46  and  _48
REMARK   24  A    between atoms: _48  and  _49
REMARK   25  A    between atoms: _48  and  _51
REMARK   26  A    between atoms: _51  and  _52
REMARK   27  A    between atoms: _57  and  _59
REMARK   28  A    between atoms: _59  and  _60
REMARK   29  A    between atoms: _59  and  _62
REMARK   30  A    between atoms: _62  and  _63
REMARK   31  A    between atoms: _63  and  _64
REMARK   32  A    between atoms: _64  and  _65
REMARK   33  A    between atoms: _74  and  _76
REMARK   34  A    between atoms: _76  and  _77
REMARK   35  A    between atoms: _76  and  _79
REMARK   36  A    between atoms: _79  and  _80
REMARK   37  A    between atoms: _83  and  _85
REMARK   38  A    between atoms: _85  and  _86
REMARK   39  A    between atoms: _85  and  _88
REMARK   40  A    between atoms: _88  and  _89
REMARK   41  A    between atoms: _94  and  _96
REMARK   42  A    between atoms: _96  and  _97
REMARK   43  A    between atoms: _100  and  _102
REMARK   44  A    between atoms: _102  and  _103
REMARK   45  A    between atoms: _105  and  _107
REMARK   46  A    between atoms: _107  and  _108
REMARK   47  A    between atoms: _107  and  _110
REMARK   48  A    between atoms: _110  and  _111
REMARK   49  A    between atoms: _114  and  _116
REMARK   50  A    between atoms: _116  and  _117
REMARK   51  A    between atoms: _120  and  _122
REMARK   52  A    between atoms: _122  and  _123
REMARK   53  A    between atoms: _122  and  _125
REMARK   54  A    between atoms: _125  and  _126
REMARK   55  A    between atoms: _126  and  _127
REMARK   56  A    between atoms: _129  and  _131
REMARK   57  A    between atoms: _131  and  _132
REMARK   58  A    between atoms: _131  and  _134
REMARK   59  A    between atoms: _134  and  _135
REMARK   60  A    between atoms: _135  and  _136
REMARK   61  A    between atoms: _136  and  _137
REMARK   62  A    between atoms: _147  and  _148
REMARK   63  A    between atoms: _153  and  _155
REMARK   64  A    between atoms: _155  and  _156
REMARK   65  A    between atoms: _155  and  _158
REMARK   66  A    between atoms: _158  and  _159
REMARK   67  A    between atoms: _159  and  _160
REMARK   68  A    between atoms: _160  and  _161
REMARK   69  A    between atoms: _171  and  _172
REMARK   70  A    between atoms: _177  and  _179
REMARK   71  A    between atoms: _179  and  _180
REMARK   72  A    between atoms: _182  and  _184
REMARK   73  A    between atoms: _184  and  _185
REMARK   74  A    between atoms: _184  and  _187
REMARK   75  A    between atoms: _187  and  _188
REMARK   76  A    between atoms: _190  and  _192
REMARK   77  A    between atoms: _192  and  _193
REMARK   78  A    between atoms: _192  and  _195
REMARK   79  A    between atoms: _198  and  _200
REMARK   80  A    between atoms: _200  and  _201
REMARK   81  A    between atoms: _200  and  _203
REMARK   82  A    between atoms: _203  and  _204
REMARK   83  A    between atoms: _206  and  _208
REMARK   84  A    between atoms: _208  and  _209
REMARK   85  A    between atoms: _208  and  _211
REMARK   86  A    between atoms: _211  and  _212
REMARK   87  A    between atoms: _214  and  _216
REMARK   88  A    between atoms: _216  and  _217
REMARK   89  A    between atoms: _216  and  _219
REMARK   90  A    between atoms: _219  and  _220
REMARK   91  A    between atoms: _220  and  _221
REMARK   92  A    between atoms: _226  and  _228
REMARK   93  A    between atoms: _228  and  _229
REMARK   94  A    between atoms: _228  and  _231
REMARK   95  A    between atoms: _231  and  _232
REMARK   96  A    between atoms: _238  and  _240
REMARK   97  A    between atoms: _240  and  _241
REMARK   98  A    between atoms: _240  and  _243
REMARK   99  A    between atoms: _243  and  _244
REMARK  100  A    between atoms: _247  and  _249
REMARK  101  A    between atoms: _249  and  _250
REMARK  102  A    between atoms: _249  and  _252
REMARK  103  A    between atoms: _252  and  _253
REMARK  104  A    between atoms: _256  and  _258
REMARK  105  A    between atoms: _258  and  _259
REMARK  106  A    between atoms: _262  and  _264
REMARK  107  A    between atoms: _264  and  _265
REMARK  108  A    between atoms: _264  and  _267
REMARK  109  A    between atoms: _267  and  _268
REMARK  110  A    between atoms: _268  and  _269
REMARK  111  A    between atoms: _271  and  _273
REMARK  112  A    between atoms: _273  and  _274
REMARK  113  A    between atoms: _273  and  _276
REMARK  114  A    between atoms: _276  and  _277
REMARK  115  A    between atoms: _280  and  _282
REMARK  116  A    between atoms: _282  and  _283
REMARK  117  A    between atoms: _282  and  _285
REMARK  118  A    between atoms: _288  and  _290
REMARK  119  A    between atoms: _290  and  _291
REMARK  120  A    between atoms: _290  and  _293
REMARK  121  A    between atoms: _293  and  _294
REMARK  122  A    between atoms: _296  and  _298
REMARK  123  A    between atoms: _298  and  _299
REMARK  124  A    between atoms: _298  and  _301
REMARK  125  A    between atoms: _301  and  _302
REMARK  126  A    between atoms: _302  and  _303
REMARK  127  A    between atoms: _303  and  _304
REMARK  128  A    between atoms: _304  and  _305
REMARK  129  A    between atoms: _310  and  _311
REMARK  130  A    between atoms: _316  and  _318
REMARK  131  A    between atoms: _318  and  _319
REMARK  132  A    between atoms: _318  and  _321
REMARK  133  A    between atoms: _321  and  _322
REMARK  134  A    between atoms: _327  and  _328
REMARK  135  A    between atoms: _330  and  _332
REMARK  136  A    between atoms: _332  and  _333
REMARK  137  A    between atoms: _332  and  _335
REMARK  138  A    between atoms: _335  and  _336
REMARK  139  A    between atoms: _339  and  _341
REMARK  140  A    between atoms: _341  and  _342
REMARK  141  A    between atoms: _341  and  _344
REMARK  142  A    between atoms: _344  and  _345
REMARK  143  A    between atoms: _348  and  _350
REMARK  144  A    between atoms: _350  and  _351
REMARK  145  A    between atoms: _350  and  _353
REMARK  146  A    between atoms: _353  and  _354
REMARK  147  A    between atoms: _357  and  _359
REMARK  148  A    between atoms: _359  and  _360
REMARK  149  A    between atoms: _359  and  _362
REMARK  150  A    between atoms: _362  and  _363
REMARK  151  A    between atoms: _366  and  _368
REMARK  152  A    between atoms: _368  and  _369
REMARK  153  A    between atoms: _368  and  _371
REMARK  154  A    between atoms: _371  and  _372
REMARK  155  A    between atoms: _374  and  _376
REMARK  156  A    between atoms: _376  and  _377
REMARK  157  A    between atoms: _376  and  _379
REMARK  158  A    between atoms: _379  and  _380
REMARK  159  A    between atoms: _385  and  _386
REMARK  160  A    between atoms: _388  and  _390
REMARK  161  A    between atoms: _390  and  _391
REMARK  162  A    between atoms: _390  and  _393
REMARK  163  A    between atoms: _393  and  _394
REMARK  164  A    between atoms: _397  and  _399
REMARK  165  A    between atoms: _399  and  _400
REMARK  166  A    between atoms: _399  and  _402
REMARK  167  A    between atoms: _402  and  _403
REMARK  168  A    between atoms: _408  and  _410
REMARK  169  A    between atoms: _410  and  _411
REMARK  170  A    between atoms: _410  and  _413
REMARK  171  A    between atoms: _413  and  _414
REMARK  172  A    between atoms: _418  and  _419
REMARK  173  A    between atoms: _424  and  _426
REMARK  174  A    between atoms: _426  and  _427
REMARK  175  A    between atoms: _426  and  _429
REMARK  176  A    between atoms: _429  and  _430
REMARK  177  A    between atoms: _433  and  _435
REMARK  178  A    between atoms: _435  and  _436
REMARK  179  A    between atoms: _439  and  _441
REMARK  180  A    between atoms: _441  and  _442
REMARK  181  A    between atoms: _441  and  _444
REMARK  182  A    between atoms: _444  and  _445
REMARK  183  A    between atoms: _445  and  _446
REMARK  184  A    between atoms: _448  and  _450
REMARK  185  A    between atoms: _450  and  _451
REMARK  186  A    between atoms: _450  and  _453
REMARK  187  A    between atoms: _453  and  _454
REMARK  188  A    between atoms: _459  and  _461
REMARK  189  A    between atoms: _461  and  _462
REMARK  190  A    between atoms: _461  and  _464
REMARK  191  A    between atoms: _464  and  _465
REMARK  192  A    between atoms: _475  and  _477
REMARK  193  A    between atoms: _477  and  _478
REMARK  194  A    between atoms: _477  and  _480
REMARK  195  A    between atoms: _483  and  _485
REMARK  196  A    between atoms: _485  and  _486
REMARK  197  A    between atoms: _485  and  _488
REMARK  198  A    between atoms: _488  and  _489
REMARK  199  A    between atoms: _489  and  _490
REMARK  200  A    between atoms: _490  and  _491
REMARK  201  A    between atoms: _491  and  _492
REMARK  202  A    between atoms: _496  and  _498
REMARK  203  A    between atoms: _498  and  _499
REMARK  204  A    between atoms: _498  and  _501
REMARK  205  A    between atoms: _501  and  _502
REMARK  206  A    between atoms: _502  and  _503
REMARK  207  A    between atoms: _506  and  _508
REMARK  208  A    between atoms: _508  and  _509
REMARK  209  A    between atoms: _508  and  _511
REMARK  210  A    between atoms: _511  and  _512
REMARK  211  A    between atoms: _515  and  _517
REMARK  212  A    between atoms: _517  and  _518
REMARK  213  A    between atoms: _517  and  _520
REMARK  214  A    between atoms: _520  and  _521
REMARK  215  A    between atoms: _521  and  _522
REMARK  216  A    between atoms: _522  and  _523
REMARK  217  A    between atoms: _532  and  _534
REMARK  218  A    between atoms: _534  and  _535
REMARK  219  A    between atoms: _534  and  _537
REMARK  220  A    between atoms: _537  and  _538
REMARK  221  A    between atoms: _543  and  _545
REMARK  222  A    between atoms: _545  and  _546
REMARK  223  A    between atoms: _545  and  _548
REMARK  224  A    between atoms: _548  and  _549
REMARK  225  A    between atoms: _552  and  _554
REMARK  226  A    between atoms: _554  and  _555
REMARK  227  A    between atoms: _554  and  _557
REMARK  228  A    between atoms: _557  and  _558
REMARK  229  A    between atoms: _563  and  _565
REMARK  230  A    between atoms: _565  and  _566
REMARK  231  A    between atoms: _565  and  _568
REMARK  232  A    between atoms: _568  and  _569
REMARK  233  A    between atoms: _569  and  _570
REMARK  234  A    between atoms: _570  and  _571
REMARK  235  A    between atoms: _580  and  _582
REMARK  236  A    between atoms: _582  and  _583
REMARK  237  A    between atoms: _582  and  _585
REMARK  238  A    between atoms: _585  and  _586
REMARK  239  A    between atoms: _586  and  _587
REMARK  240  A    between atoms: _589  and  _591
REMARK  241  A    between atoms: _591  and  _592
REMARK  242  A    between atoms: _591  and  _594
REMARK  243  A    between atoms: _594  and  _595
REMARK  244  A    between atoms: _595  and  _596
REMARK  245  A    between atoms: _598  and  _600
REMARK  246  A    between atoms: _600  and  _601
REMARK  247  A    between atoms: _600  and  _603
REMARK  248  A    between atoms: _603  and  _604
REMARK  249  A    between atoms: _604  and  _605
REMARK  250  A    between atoms: _605  and  _606
REMARK  251  A    between atoms: _606  and  _607
REMARK  252  A    between atoms: _611  and  _613
REMARK  253  A    between atoms: _613  and  _614
REMARK  254  A    between atoms: _613  and  _616
REMARK  255  A    between atoms: _616  and  _617
REMARK                            x       y       z     vdW  Elec       q    Type
REMARK                         _______ _______ _______ _____ _____    ______ ____
ROOT
ATOM      1  NE  ARG A   1      60.648   3.742  33.456  0.00  0.00    -0.265 N 
ATOM      2  HE  ARG A   1      61.618   3.373  33.521  0.00  0.00    +0.259 HD
ATOM      3  CZ  ARG A   1      60.481   4.967  32.970  0.00  0.00    +0.342 C 
ATOM      4  NH2 ARG A   1      59.257   5.475  32.845  0.00  0.00    -0.292 N 
ATOM      5 HH21 ARG A   1      58.429   4.913  33.128  0.00  0.00    +0.255 HD
ATOM      6 HH22 ARG A   1      59.128   6.434  32.464  0.00  0.00    +0.255 HD
ATOM      7  NH1 ARG A   1      61.541   5.679  32.594  0.00  0.00    -0.292 N 
ATOM      8 HH11 ARG A   1      62.496   5.276  32.681  0.00  0.00    +0.255 HD
ATOM      9 HH12 ARG A   1      61.414   6.638  32.213  0.00  0.00    +0.255 HD
ENDROOT
BRANCH   1  10
ATOM     10  CD  ARG A   1      59.560   2.881  33.904  0.00  0.00    +0.174 C 
BRANCH  10  11
ATOM     11  CG  ARG A   1      60.055   1.474  34.154  0.00  0.00    +0.045 C 
BRANCH  11  12
ATOM     12  CB  ARG A   1      59.033   0.618  34.883  0.00  0.00    +0.029 C 
BRANCH  12  13
ATOM     13  CA  ARG A   1      59.455  -0.851  34.879  0.00  0.00    +0.133 C 
BRANCH  13  14
ATOM     14  N   ARG A   1      59.375  -1.359  33.525  0.00  0.00    -0.239 NA
ATOM     15  H   ARG A   1      58.860  -0.810  32.807  0.00  0.00    +0.142 HD
ENDBRANCH  13  14
BRANCH  13  16
ATOM     16  C   ARG A   1      58.699  -1.651  35.923  0.00  0.00    +0.224 C 
ATOM     17  O   ARG A   1      59.031  -1.586  37.095  0.00  0.00    -0.287 OA
ENDBRANCH  13  16
ENDBRANCH  12  13
ENDBRANCH  11  12
ENDBRANCH  10  11
ENDBRANCH   1  10
TORSDOF 6
REMARK  Name = ../refined-set-2016/1x8t/1x8t_pocket.pdb
REMARK  255 active torsions:
REMARK  status: ('A' for Active; 'I' for Inactive)
REMARK    1  A    between atoms: _1  and  _3
REMARK    2  A    between atoms: _3  and  _4
REMARK    3  A    between atoms: _3  and  _6
REMARK    4  A    between atoms: _6  and  _7
REMARK    5  A    between atoms: _9  and  _11
REMARK    6  A    between atoms: _11  and  _12
REMARK    7  A    between atoms: _11  and  _14
REMARK    8  A    between atoms: _14  and  _15
REMARK    9  A    between atoms: _15  and  _16
REMARK   10  A    between atoms: _16  and  _17
REMARK   11  A    between atoms: _17  and  _18
REMARK   12  A    between atoms: _22  and  _24
REMARK   13  A    between atoms: _24  and  _25
REMARK   14  A    between atoms: _24  and  _27
REMARK   15  A    between atoms: _27  and  _28
REMARK   16  A    between atoms: _30  and  _32
REMARK   17  A    between atoms: _32  and  _33
REMARK   18  A    between atoms: _32  and  _35
REMARK   19  A    between atoms: _38  and  _40
REMARK   20  A    between atoms: _40  and  _41
REMARK   21  A    between atoms: _40  and  _43
REMARK   22  A    between atoms: _43  and  _44
REMARK   23  A    between atoms: _46  and  _48
REMARK   24  A    between atoms: _48  and  _49
REMARK   25  A    between atoms: _48  and  _51
REMARK   26  A    between atoms: _51  and  _52
REMARK   27  A    between atoms: _57  and  _59
REMARK   28  A    between atoms: _59  and  _60
REMARK   29  A    between atoms: _59  and  _62
REMARK   30  A    between atoms: _62  and  _63
REMARK   31  A    between atoms: _63  and  _64
REMARK   32  A    between atoms: _64  and  _65
REMARK   33  A    between atoms: _74  and  _76
REMARK   34  A    between atoms: _76  and  _77
REMARK   35  A    between atoms: _76  and  _79
REMARK   36  A    between atoms: _79  and  _80
REMARK   37  A    between atoms: _83  and  _85
REMARK   38  A    between atoms: _85  and  _86
REMARK   39  A    between atoms: _85  and  _88
REMARK   40  A    between atoms: _88  and  _89
REMARK   41  A    between atoms: _94  and  _96
REMARK   42  A    between atoms: _96  and  _97
REMARK   43  A    between atoms: _100  and  _102
REMARK   44  A    between atoms: _102  and  _103
REMARK   45  A    between atoms: _105  and  _107
REMARK   46  A    between atoms: _107  and  _108
REMARK   47  A    between atoms: _107  and  _110
REMARK   48  A    between atoms: _110  and  _111
REMARK   49  A    between atoms: _114  and  _116
REMARK   50  A    between atoms: _116  and  _117
REMARK   51  A    between atoms: _120  and  _122
REMARK   52  A    between atoms: _122  and  _123
REMARK   53  A    between atoms: _122  and  _125
REMARK   54  A    between atoms: _125  and  _126
REMARK   55  A    between atoms: _126  and  _127
REMARK   56  A    between atoms: _129  and  _131
REMARK   57  A    between atoms: _131  and  _132
REMARK   58  A    between atoms: _131  and  _134
REMARK   59  A    between atoms: _134  and  _135
REMARK   60  A    between atoms: _135  and  _136
REMARK   61  A    between atoms: _136  and  _137
REMARK   62  A    between atoms: _147  and  _148
REMARK   63  A    between atoms: _153  and  _155
REMARK   64  A    between atoms: _155  and  _156
REMARK   65  A    between atoms: _155  and  _158
REMARK   66  A    between atoms: _158  and  _159
REMARK   67  A    between atoms: _159  and  _160
REMARK   68  A    between atoms: _160  and  _161
REMARK   69  A    between atoms: _171  and  _172
REMARK   70  A    between atoms: _177  and  _179
REMARK   71  A    between atoms: _179  and  _180
REMARK   72  A    between atoms: _182  and  _184
REMARK   73  A    between atoms: _184  and  _185
REMARK   74  A    between atoms: _184  and  _187
REMARK   75  A    between atoms: _187  and  _188
REMARK   76  A    between atoms: _190  and  _192
REMARK   77  A    between atoms: _192  and  _193
REMARK   78  A    between atoms: _192  and  _195
REMARK   79  A    between atoms: _198  and  _200
REMARK   80  A    between atoms: _200  and  _201
REMARK   81  A    between atoms: _200  and  _203
REMARK   82  A    between atoms: _203  and  _204
REMARK   83  A    between atoms: _206  and  _208
REMARK   84  A    between atoms: _208  and  _209
REMARK   85  A    between atoms: _208  and  _211
REMARK   86  A    between atoms: _211  and  _212
REMARK   87  A    between atoms: _214  and  _216
REMARK   88  A    between atoms: _216  and  _217
REMARK   89  A    between atoms: _216  and  _219
REMARK   90  A    between atoms: _219  and  _220
REMARK   91  A    between atoms: _220  and  _221
REMARK   92  A    between atoms: _226  and  _228
REMARK   93  A    between atoms: _228  and  _229
REMARK   94  A    between atoms: _228  and  _231
REMARK   95  A    between atoms: _231  and  _232
REMARK   96  A    between atoms: _238  and  _240
REMARK   97  A    between atoms: _240  and  _241
REMARK   98  A    between atoms: _240  and  _243
REMARK   99  A    between atoms: _243  and  _244
REMARK  100  A    between atoms: _247  and  _249
REMARK  101  A    between atoms: _249  and  _250
REMARK  102  A    between atoms: _249  and  _252
REMARK  103  A    between atoms: _252  and  _253
REMARK  104  A    between atoms: _256  and  _258
REMARK  105  A    between atoms: _258  and  _259
REMARK  106  A    between atoms: _262  and  _264
REMARK  107  A    between atoms: _264  and  _265
REMARK  108  A    between atoms: _264  and  _267
REMARK  109  A    between atoms: _267  and  _268
REMARK  110  A    between atoms: _268  and  _269
REMARK  111  A    between atoms: _271  and  _273
REMARK  112  A    between atoms: _273  and  _274
REMARK  113  A    between atoms: _273  and  _276
REMARK  114  A    between atoms: _276  and  _277
REMARK  115  A    between atoms: _280  and  _282
REMARK  116  A    between atoms: _282  and  _283
REMARK  117  A    between atoms: _282  and  _285
REMARK  118  A    between atoms: _288  and  _290
REMARK  119  A    between atoms: _290  and  _291
REMARK  120  A    between atoms: _290  and  _293
REMARK  121  A    between atoms: _293  and  _294
REMARK  122  A    between atoms: _296  and  _298
REMARK  123  A    between atoms: _298  and  _299
REMARK  124  A    between atoms: _298  and  _301
REMARK  125  A    between atoms: _301  and  _302
REMARK  126  A    between atoms: _302  and  _303
REMARK  127  A    between atoms: _303  and  _304
REMARK  128  A    between atoms: _304  and  _305
REMARK  129  A    between atoms: _310  and  _311
REMARK  130  A    between atoms: _316  and  _318
REMARK  131  A    between atoms: _318  and  _319
REMARK  132  A    between atoms: _318  and  _321
REMARK  133  A    between atoms: _321  and  _322
REMARK  134  A    between atoms: _327  and  _328
REMARK  135  A    between atoms: _330  and  _332
REMARK  136  A    between atoms: _332  and  _333
REMARK  137  A    between atoms: _332  and  _335
REMARK  138  A    between atoms: _335  and  _336
REMARK  139  A    between atoms: _339  and  _341
REMARK  140  A    between atoms: _341  and  _342
REMARK  141  A    between atoms: _341  and  _344
REMARK  142  A    between atoms: _344  and  _345
REMARK  143  A    between atoms: _348  and  _350
REMARK  144  A    between atoms: _350  and  _351
REMARK  145  A    between atoms: _350  and  _353
REMARK  146  A    between atoms: _353  and  _354
REMARK  147  A    between atoms: _357  and  _359
REMARK  148  A    between atoms: _359  and  _360
REMARK  149  A    between atoms: _359  and  _362
REMARK  150  A    between atoms: _362  and  _363
REMARK  151  A    between atoms: _366  and  _368
REMARK  152  A    between atoms: _368  and  _369
REMARK  153  A    between atoms: _368  and  _371
REMARK  154  A    between atoms: _371  and  _372
REMARK  155  A    between atoms: _374  and  _376
REMARK  156  A    between atoms: _376  and  _377
REMARK  157  A    between atoms: _376  and  _379
REMARK  158  A    between atoms: _379  and  _380
REMARK  159  A    between atoms: _385  and  _386
REMARK  160  A    between atoms: _388  and  _390
REMARK  161  A    between atoms: _390  and  _391
REMARK  162  A    between atoms: _390  and  _393
REMARK  163  A    between atoms: _393  and  _394
REMARK  164  A    between atoms: _397  and  _399
REMARK  165  A    between atoms: _399  and  _400
REMARK  166  A    between atoms: _399  and  _402
REMARK  167  A    between atoms: _402  and  _403
REMARK  168  A    between atoms: _408  and  _410
REMARK  169  A    between atoms: _410  and  _411
REMARK  170  A    between atoms: _410  and  _413
REMARK  171  A    between atoms: _413  and  _414
REMARK  172  A    between atoms: _418  and  _419
REMARK  173  A    between atoms: _424  and  _426
REMARK  174  A    between atoms: _426  and  _427
REMARK  175  A    between atoms: _426  and  _429
REMARK  176  A    between atoms: _429  and  _430
REMARK  177  A    between atoms: _433  and  _435
REMARK  178  A    between atoms: _435  and  _436
REMARK  179  A    between atoms: _439  and  _441
REMARK  180  A    between atoms: _441  and  _442
REMARK  181  A    between atoms: _441  and  _444
REMARK  182  A    between atoms: _444  and  _445
REMARK  183  A    between atoms: _445  and  _446
REMARK  184  A    between atoms: _448  and  _450
REMARK  185  A    between atoms: _450  and  _451
REMARK  186  A    between atoms: _450  and  _453
REMARK  187  A    between atoms: _453  and  _454
REMARK  188  A    between atoms: _459  and  _461
REMARK  189  A    between atoms: _461  and  _462
REMARK  190  A    between atoms: _461  and  _464
REMARK  191  A    between atoms: _464  and  _465
REMARK  192  A    between atoms: _475  and  _477
REMARK  193  A    between atoms: _477  and  _478
REMARK  194  A    between atoms: _477  and  _480
REMARK  195  A    between atoms: _483  and  _485
REMARK  196  A    between atoms: _485  and  _486
REMARK  197  A    between atoms: _485  and  _488
REMARK  198  A    between atoms: _488  and  _489
REMARK  199  A    between atoms: _489  and  _490
REMARK  200  A    between atoms: _490  and  _491
REMARK  201  A    between atoms: _491  and  _492
REMARK  202  A    between atoms: _496  and  _498
REMARK  203  A    between atoms: _498  and  _499
REMARK  204  A    between atoms: _498  and  _501
REMARK  205  A    between atoms: _501  and  _502
REMARK  206  A    between atoms: _502  and  _503
REMARK  207  A    between atoms: _506  and  _508
REMARK  208  A    between atoms: _508  and  _509
REMARK  209  A    between atoms: _508  and  _511
REMARK  210  A    between atoms: _511  and  _512
REMARK  211  A    between atoms: _515  and  _517
REMARK  212  A    between atoms: _517  and  _518
REMARK  213  A    between atoms: _517  and  _520
REMARK  214  A    between atoms: _520  and  _521
REMARK  215  A    between atoms: _521  and  _522
REMARK  216  A    between atoms: _522  and  _523
REMARK  217  A    between atoms: _532  and  _534
REMARK  218  A    between atoms: _534  and  _535
REMARK  219  A    between atoms: _534  and  _537
REMARK  220  A    between atoms: _537  and  _538
REMARK  221  A    between atoms: _543  and  _545
REMARK  222  A    between atoms: _545  and  _546
REMARK  223  A    between atoms: _545  and  _548
REMARK  224  A    between atoms: _548  and  _549
REMARK  225  A    between atoms: _552  and  _554
REMARK  226  A    between atoms: _554  and  _555
REMARK  227  A    between atoms: _554  and  _557
REMARK  228  A    between atoms: _557  and  _558
REMARK  229  A    between atoms: _563  and  _565
REMARK  230  A    between atoms: _565  and  _566
REMARK  231  A    between atoms: _565  and  _568
REMARK  232  A    between atoms: _568  and  _569
REMARK  233  A    between atoms: _569  and  _570
REMARK  234  A    between atoms: _570  and  _571
REMARK  235  A    between atoms: _580  and  _582
REMARK  236  A    between atoms: _582  and  _583
REMARK  237  A    between atoms: _582  and  _585
REMARK  238  A    between atoms: _585  and  _586
REMARK  239  A    between atoms: _586  and  _587
REMARK  240  A    between atoms: _589  and  _591
REMARK  241  A    between atoms: _591  and  _592
REMARK  242  A    between atoms: _591  and  _594
REMARK  243  A    between atoms: _594  and  _595
REMARK  244  A    between atoms: _595  and  _596
REMARK  245  A    between atoms: _598  and  _600
REMARK  246  A    between atoms: _600  and  _601
REMARK  247  A    between atoms: _600  and  _603
REMARK  248  A    between atoms: _603  and  _604
REMARK  249  A    between atoms: _604  and  _605
REMARK  250  A    between atoms: _605  and  _606
REMARK  251  A    between atoms: _606  and  _607
REMARK  252  A    between atoms: _611  and  _613
REMARK  253  A    between atoms: _613  and  _614
REMARK  254  A    between atoms: _613  and  _616
REMARK  255  A    between atoms: _616  and  _617
REMARK                            x       y       z     vdW  Elec       q    Type
REMARK                         _______ _______ _______ _____ _____    ______ ____
ROOT
ATOM      1  CA  HIS A   3      67.173   6.996  34.439  0.00  0.00    +0.155 C 
ENDROOT
BRANCH   1   4
ATOM      2  C   ASP A   2      66.881   4.626  33.979  0.00  0.00    +0.241 C 
ATOM      3  O   ASP A   2      67.073   4.323  35.151  0.00  0.00    -0.273 OA
ATOM      4  N   HIS A   3      66.905   5.878  33.538  0.00  0.00    -0.297 N 
ATOM      5  H   HIS A   3      66.729   6.067  32.530  0.00  0.00    +0.150 HD
BRANCH   2   6
ATOM      6  CA  ASP A   2      66.594   3.553  32.949  0.00  0.00    +0.160 C 
BRANCH   6   8
ATOM      7  C   ASN A   1      68.380   2.672  31.563  0.00  0.00    +0.239 C 
ATOM      8  N   ASP A   2      67.770   2.719  32.741  0.00  0.00    -0.297 N 
ATOM      9  H   ASP A   2      68.138   2.150  33.530  0.00  0.00    +0.150 HD
ATOM     10  O   ASN A   1      68.025   3.350  30.598  0.00  0.00    -0.274 OA
BRANCH   7  11
ATOM     11  CA  ASN A   1      69.572   1.723  31.463  0.00  0.00    +0.154 C 
BRANCH  11  12
ATOM     12  N   ASN A   1      69.375   0.611  32.394  0.00  0.00    -0.238 NA
ATOM     13  H   ASN A   1      70.099   0.422  33.117  0.00  0.00    +0.142 HD
ENDBRANCH  11  12
BRANCH  11  14
ATOM     14  CB  ASN A   1      69.681   1.200  30.031  0.00  0.00    +0.111 C 
BRANCH  14  15
ATOM     15  CG  ASN A   1      70.823   0.211  29.863  0.00  0.00    +0.221 C 
ATOM     16  OD1 ASN A   1      71.990   0.582  29.938  0.00  0.00    -0.275 OA
ATOM     17  ND2 ASN A   1      70.486  -1.053  29.641  0.00  0.00    -0.329 N 
ATOM     18 HD21 ASN A   1      69.483  -1.322  29.585  0.00  0.00    +0.145 HD
ATOM     19 HD22 ASN A   1      71.225  -1.775  29.523  0.00  0.00    +0.145 HD
ENDBRANCH  14  15
ENDBRANCH  11  14
ENDBRANCH   7  11
ENDBRANCH   6   8
BRANCH   6  20
ATOM     20  CB  ASP A   2      65.440   2.679  33.429  0.00  0.00    +0.143 C 
BRANCH  20  21
ATOM     21  CG  ASP A   2      64.135   3.445  33.579  0.00  0.00    +0.367 C 
ATOM     22  OD2 ASP A   2      63.093   2.784  33.754  0.00  0.00    -0.246 OA
ATOM     23  OD1 ASP A   2      64.141   4.691  33.529  0.00  0.00    -0.246 OA
ENDBRANCH  20  21
ENDBRANCH   6  20
ENDBRANCH   2   6
ENDBRANCH   1   4
BRANCH   1  24
ATOM     24  C   HIS A   3      66.310   6.995  35.701  0.00  0.00    +0.241 C 
ATOM     25  O   HIS A   3      66.794   7.326  36.791  0.00  0.00    -0.273 OA
ATOM     26  N   ARG A   4      65.041   6.614  35.576  0.00  0.00    -0.297 N 
ATOM     27  H   ARG A   4      64.669   6.305  34.655  0.00  0.00    +0.150 HD
BRANCH  26  28
ATOM     28  CA  ARG A   4      64.182   6.638  36.756  0.00  0.00    +0.149 C 
BRANCH  28  29
ATOM     29  C   ARG A   4      64.445   5.523  37.761  0.00  0.00    +0.241 C 
ATOM     30  O   ARG A   4      64.159   5.682  38.947  0.00  0.00    -0.273 OA
ATOM     31  N   MET A   5      64.978   4.398  37.303  0.00  0.00    -0.298 N 
ATOM     32  H   MET A   5      65.159   4.286  36.285  0.00  0.00    +0.150 HD
BRANCH  31  33
ATOM     33  CA  MET A   5      65.312   3.311  38.231  0.00  0.00    +0.138 C 
BRANCH  33  34
ATOM     34  C   MET A   5      66.433   3.830  39.140  0.00  0.00    +0.227 C 
ATOM     35  O   MET A   5      66.402   3.646  40.351  0.00  0.00    -0.286 OA
ENDBRANCH  33  34
BRANCH  33  36
ATOM     36  CB  MET A   5      65.790   2.075  37.461  0.00  0.00    +0.039 C 
BRANCH  36  37
ATOM     37  CG  MET A   5      64.662   1.284  36.824  0.00  0.00    +0.060 C 
BRANCH  37  38
ATOM     38  SD  MET A   5      63.461   0.672  38.042  0.00  0.00    -0.139 S 
ATOM     39  CE  MET A   5      64.470  -0.529  38.864  0.00  0.00    +0.069 C 
ENDBRANCH  37  38
ENDBRANCH  36  37
ENDBRANCH  33  36
ENDBRANCH  31  33
ENDBRANCH  28  29
BRANCH  28  40
ATOM     40  CB  ARG A   4      62.707   6.677  36.338  0.00  0.00    +0.033 C 
BRANCH  40  41
ATOM     41  CG  ARG A   4      62.421   7.878  35.446  0.00  0.00    +0.045 C 
BRANCH  41  42
ATOM     42  CD  ARG A   4      60.930   8.235  35.331  0.00  0.00    +0.174 C 
BRANCH  42  43
ATOM     43  NE  ARG A   4      60.778   9.332  34.378  0.00  0.00    -0.265 N 
ATOM     44  CZ  ARG A   4      61.158  10.587  34.605  0.00  0.00    +0.342 C 
ATOM     45  NH2 ARG A   4      61.664  10.940  35.785  0.00  0.00    -0.292 N 
ATOM     46 HH21 ARG A   4      61.765  10.232  36.540  0.00  0.00    +0.255 HD
ATOM     47 HH22 ARG A   4      61.958  11.924  35.952  0.00  0.00    +0.255 HD
ATOM     48  NH1 ARG A   4      60.997  11.503  33.660  0.00  0.00    -0.292 N 
ATOM     49 HH11 ARG A   4      61.292  12.485  33.832  0.00  0.00    +0.255 HD
ATOM     50 HH12 ARG A   4      60.575  11.239  32.747  0.00  0.00    +0.255 HD
ATOM     51  HE  ARG A   4      60.343   9.117  33.458  0.00  0.00    +0.259 HD
ENDBRANCH  42  43
ENDBRANCH  41  42
ENDBRANCH  40  41
ENDBRANCH  28  40
ENDBRANCH  26  28
ENDBRANCH   1  24
BRANCH   1  52
ATOM     52  CB  HIS A   3      66.985   8.338  33.713  0.00  0.00    +0.076 C 
BRANCH  52  53
ATOM     53  CG  HIS A   3      65.637   8.510  33.079  0.00  0.00    +0.082 A 
ATOM     54  ND1 HIS A   3      65.034   9.744  32.939  0.00  0.00    -0.227 NA
ATOM     55  CE1 HIS A   3      63.891   9.602  32.292  0.00  0.00    +0.199 A 
ATOM     56  NE2 HIS A   3      63.729   8.322  32.008  0.00  0.00    -0.221 NA
ATOM     57  CD2 HIS A   3      64.805   7.617  32.492  0.00  0.00    +0.115 A 
ENDBRANCH  52  53
ENDBRANCH   1  52
TORSDOF 23
REMARK  Name = ../refined-set-2016/1x8t/1x8t_pocket.pdb
REMARK  255 active torsions:
REMARK  status: ('A' for Active; 'I' for Inactive)
REMARK    1  A    between atoms: _1  and  _3
REMARK    2  A    between atoms: _3  and  _4
REMARK    3  A    between atoms: _3  and  _6
REMARK    4  A    between atoms: _6  and  _7
REMARK    5  A    between atoms: _9  and  _11
REMARK    6  A    between atoms: _11  and  _12
REMARK    7  A    between atoms: _11  and  _14
REMARK    8  A    between atoms: _14  and  _15
REMARK    9  A    between atoms: _15  and  _16
REMARK   10  A    between atoms: _16  and  _17
REMARK   11  A    between atoms: _17  and  _18
REMARK   12  A    between atoms: _22  and  _24
REMARK   13  A    between atoms: _24  and  _25
REMARK   14  A    between atoms: _24  and  _27
REMARK   15  A    between atoms: _27  and  _28
REMARK   16  A    between atoms: _30  and  _32
REMARK   17  A    between atoms: _32  and  _33
REMARK   18  A    between atoms: _32  and  _35
REMARK   19  A    between atoms: _38  and  _40
REMARK   20  A    between atoms: _40  and  _41
REMARK   21  A    between atoms: _40  and  _43
REMARK   22  A    between atoms: _43  and  _44
REMARK   23  A    between atoms: _46  and  _48
REMARK   24  A    between atoms: _48  and  _49
REMARK   25  A    between atoms: _48  and  _51
REMARK   26  A    between atoms: _51  and  _52
REMARK   27  A    between atoms: _57  and  _59
REMARK   28  A    between atoms: _59  and  _60
REMARK   29  A    between atoms: _59  and  _62
REMARK   30  A    between atoms: _62  and  _63
REMARK   31  A    between atoms: _63  and  _64
REMARK   32  A    between atoms: _64  and  _65
REMARK   33  A    between atoms: _74  and  _76
REMARK   34  A    between atoms: _76  and  _77
REMARK   35  A    between atoms: _76  and  _79
REMARK   36  A    between atoms: _79  and  _80
REMARK   37  A    between atoms: _83  and  _85
REMARK   38  A    between atoms: _85  and  _86
REMARK   39  A    between atoms: _85  and  _88
REMARK   40  A    between atoms: _88  and  _89
REMARK   41  A    between atoms: _94  and  _96
REMARK   42  A    between atoms: _96  and  _97
REMARK   43  A    between atoms: _100  and  _102
REMARK   44  A    between atoms: _102  and  _103
REMARK   45  A    between atoms: _105  and  _107
REMARK   46  A    between atoms: _107  and  _108
REMARK   47  A    between atoms: _107  and  _110
REMARK   48  A    between atoms: _110  and  _111
REMARK   49  A    between atoms: _114  and  _116
REMARK   50  A    between atoms: _116  and  _117
REMARK   51  A    between atoms: _120  and  _122
REMARK   52  A    between atoms: _122  and  _123
REMARK   53  A    between atoms: _122  and  _125
REMARK   54  A    between atoms: _125  and  _126
REMARK   55  A    between atoms: _126  and  _127
REMARK   56  A    between atoms: _129  and  _131
REMARK   57  A    between atoms: _131  and  _132
REMARK   58  A    between atoms: _131  and  _134
REMARK   59  A    between atoms: _134  and  _135
REMARK   60  A    between atoms: _135  and  _136
REMARK   61  A    between atoms: _136  and  _137
REMARK   62  A    between atoms: _147  and  _148
REMARK   63  A    between atoms: _153  and  _155
REMARK   64  A    between atoms: _155  and  _156
REMARK   65  A    between atoms: _155  and  _158
REMARK   66  A    between atoms: _158  and  _159
REMARK   67  A    between atoms: _159  and  _160
REMARK   68  A    between atoms: _160  and  _161
REMARK   69  A    between atoms: _171  and  _172
REMARK   70  A    between atoms: _177  and  _179
REMARK   71  A    between atoms: _179  and  _180
REMARK   72  A    between atoms: _182  and  _184
REMARK   73  A    between atoms: _184  and  _185
REMARK   74  A    between atoms: _184  and  _187
REMARK   75  A    between atoms: _187  and  _188
REMARK   76  A    between atoms: _190  and  _192
REMARK   77  A    between atoms: _192  and  _193
REMARK   78  A    between atoms: _192  and  _195
REMARK   79  A    between atoms: _198  and  _200
REMARK   80  A    between atoms: _200  and  _201
REMARK   81  A    between atoms: _200  and  _203
REMARK   82  A    between atoms: _203  and  _204
REMARK   83  A    between atoms: _206  and  _208
REMARK   84  A    between atoms: _208  and  _209
REMARK   85  A    between atoms: _208  and  _211
REMARK   86  A    between atoms: _211  and  _212
REMARK   87  A    between atoms: _214  and  _216
REMARK   88  A    between atoms: _216  and  _217
REMARK   89  A    between atoms: _216  and  _219
REMARK   90  A    between atoms: _219  and  _220
REMARK   91  A    between atoms: _220  and  _221
REMARK   92  A    between atoms: _226  and  _228
REMARK   93  A    between atoms: _228  and  _229
REMARK   94  A    between atoms: _228  and  _231
REMARK   95  A    between atoms: _231  and  _232
REMARK   96  A    between atoms: _238  and  _240
REMARK   97  A    between atoms: _240  and  _241
REMARK   98  A    between atoms: _240  and  _243
REMARK   99  A    between atoms: _243  and  _244
REMARK  100  A    between atoms: _247  and  _249
REMARK  101  A    between atoms: _249  and  _250
REMARK  102  A    between atoms: _249  and  _252
REMARK  103  A    between atoms: _252  and  _253
REMARK  104  A    between atoms: _256  and  _258
REMARK  105  A    between atoms: _258  and  _259
REMARK  106  A    between atoms: _262  and  _264
REMARK  107  A    between atoms: _264  and  _265
REMARK  108  A    between atoms: _264  and  _267
REMARK  109  A    between atoms: _267  and  _268
REMARK  110  A    between atoms: _268  and  _269
REMARK  111  A    between atoms: _271  and  _273
REMARK  112  A    between atoms: _273  and  _274
REMARK  113  A    between atoms: _273  and  _276
REMARK  114  A    between atoms: _276  and  _277
REMARK  115  A    between atoms: _280  and  _282
REMARK  116  A    between atoms: _282  and  _283
REMARK  117  A    between atoms: _282  and  _285
REMARK  118  A    between atoms: _288  and  _290
REMARK  119  A    between atoms: _290  and  _291
REMARK  120  A    between atoms: _290  and  _293
REMARK  121  A    between atoms: _293  and  _294
REMARK  122  A    between atoms: _296  and  _298
REMARK  123  A    between atoms: _298  and  _299
REMARK  124  A    between atoms: _298  and  _301
REMARK  125  A    between atoms: _301  and  _302
REMARK  126  A    between atoms: _302  and  _303
REMARK  127  A    between atoms: _303  and  _304
REMARK  128  A    between atoms: _304  and  _305
REMARK  129  A    between atoms: _310  and  _311
REMARK  130  A    between atoms: _316  and  _318
REMARK  131  A    between atoms: _318  and  _319
REMARK  132  A    between atoms: _318  and  _321
REMARK  133  A    between atoms: _321  and  _322
REMARK  134  A    between atoms: _327  and  _328
REMARK  135  A    between atoms: _330  and  _332
REMARK  136  A    between atoms: _332  and  _333
REMARK  137  A    between atoms: _332  and  _335
REMARK  138  A    between atoms: _335  and  _336
REMARK  139  A    between atoms: _339  and  _341
REMARK  140  A    between atoms: _341  and  _342
REMARK  141  A    between atoms: _341  and  _344
REMARK  142  A    between atoms: _344  and  _345
REMARK  143  A    between atoms: _348  and  _350
REMARK  144  A    between atoms: _350  and  _351
REMARK  145  A    between atoms: _350  and  _353
REMARK  146  A    between atoms: _353  and  _354
REMARK  147  A    between atoms: _357  and  _359
REMARK  148  A    between atoms: _359  and  _360
REMARK  149  A    between atoms: _359  and  _362
REMARK  150  A    between atoms: _362  and  _363
REMARK  151  A    between atoms: _366  and  _368
REMARK  152  A    between atoms: _368  and  _369
REMARK  153  A    between atoms: _368  and  _371
REMARK  154  A    between atoms: _371  and  _372
REMARK  155  A    between atoms: _374  and  _376
REMARK  156  A    between atoms: _376  and  _377
REMARK  157  A    between atoms: _376  and  _379
REMARK  158  A    between atoms: _379  and  _380
REMARK  159  A    between atoms: _385  and  _386
REMARK  160  A    between atoms: _388  and  _390
REMARK  161  A    between atoms: _390  and  _391
REMARK  162  A    between atoms: _390  and  _393
REMARK  163  A    between atoms: _393  and  _394
REMARK  164  A    between atoms: _397  and  _399
REMARK  165  A    between atoms: _399  and  _400
REMARK  166  A    between atoms: _399  and  _402
REMARK  167  A    between atoms: _402  and  _403
REMARK  168  A    between atoms: _408  and  _410
REMARK  169  A    between atoms: _410  and  _411
REMARK  170  A    between atoms: _410  and  _413
REMARK  171  A    between atoms: _413  and  _414
REMARK  172  A    between atoms: _418  and  _419
REMARK  173  A    between atoms: _424  and  _426
REMARK  174  A    between atoms: _426  and  _427
REMARK  175  A    between atoms: _426  and  _429
REMARK  176  A    between atoms: _429  and  _430
REMARK  177  A    between atoms: _433  and  _435
REMARK  178  A    between atoms: _435  and  _436
REMARK  179  A    between atoms: _439  and  _441
REMARK  180  A    between atoms: _441  and  _442
REMARK  181  A    between atoms: _441  and  _444
REMARK  182  A    between atoms: _444  and  _445
REMARK  183  A    between atoms: _445  and  _446
REMARK  184  A    between atoms: _448  and  _450
REMARK  185  A    between atoms: _450  and  _451
REMARK  186  A    between atoms: _450  and  _453
REMARK  187  A    between atoms: _453  and  _454
REMARK  188  A    between atoms: _459  and  _461
REMARK  189  A    between atoms: _461  and  _462
REMARK  190  A    between atoms: _461  and  _464
REMARK  191  A    between atoms: _464  and  _465
REMARK  192  A    between atoms: _475  and  _477
REMARK  193  A    between atoms: _477  and  _478
REMARK  194  A    between atoms: _477  and  _480
REMARK  195  A    between atoms: _483  and  _485
REMARK  196  A    between atoms: _485  and  _486
REMARK  197  A    between atoms: _485  and  _488
REMARK  198  A    between atoms: _488  and  _489
REMARK  199  A    between atoms: _489  and  _490
REMARK  200  A    between atoms: _490  and  _491
REMARK  201  A    between atoms: _491  and  _492
REMARK  202  A    between atoms: _496  and  _498
REMARK  203  A    between atoms: _498  and  _499
REMARK  204  A    between atoms: _498  and  _501
REMARK  205  A    between atoms: _501  and  _502
REMARK  206  A    between atoms: _502  and  _503
REMARK  207  A    between atoms: _506  and  _508
REMARK  208  A    between atoms: _508  and  _509
REMARK  209  A    between atoms: _508  and  _511
REMARK  210  A    between atoms: _511  and  _512
REMARK  211  A    between atoms: _515  and  _517
REMARK  212  A    between atoms: _517  and  _518
REMARK  213  A    between atoms: _517  and  _520
REMARK  214  A    between atoms: _520  and  _521
REMARK  215  A    between atoms: _521  and  _522
REMARK  216  A    between atoms: _522  and  _523
REMARK  217  A    between atoms: _532  and  _534
REMARK  218  A    between atoms: _534  and  _535
REMARK  219  A    between atoms: _534  and  _537
REMARK  220  A    between atoms: _537  and  _538
REMARK  221  A    between atoms: _543  and  _545
REMARK  222  A    between atoms: _545  and  _546
REMARK  223  A    between atoms: _545  and  _548
REMARK  224  A    between atoms: _548  and  _549
REMARK  225  A    between atoms: _552  and  _554
REMARK  226  A    between atoms: _554  and  _555
REMARK  227  A    between atoms: _554  and  _557
REMARK  228  A    between atoms: _557  and  _558
REMARK  229  A    between atoms: _563  and  _565
REMARK  230  A    between atoms: _565  and  _566
REMARK  231  A    between atoms: _565  and  _568
REMARK  232  A    between atoms: _568  and  _569
REMARK  233  A    between atoms: _569  and  _570
REMARK  234  A    between atoms: _570  and  _571
REMARK  235  A    between atoms: _580  and  _582
REMARK  236  A    between atoms: _582  and  _583
REMARK  237  A    between atoms: _582  and  _585
REMARK  238  A    between atoms: _585  and  _586
REMARK  239  A    between atoms: _586  and  _587
REMARK  240  A    between atoms: _589  and  _591
REMARK  241  A    between atoms: _591  and  _592
REMARK  242  A    between atoms: _591  and  _594
REMARK  243  A    between atoms: _594  and  _595
REMARK  244  A    between atoms: _595  and  _596
REMARK  245  A    between atoms: _598  and  _600
REMARK  246  A    between atoms: _600  and  _601
REMARK  247  A    between atoms: _600  and  _603
REMARK  248  A    between atoms: _603  and  _604
REMARK  249  A    between atoms: _604  and  _605
REMARK  250  A    between atoms: _605  and  _606
REMARK  251  A    between atoms: _606  and  _607
REMARK  252  A    between atoms: _611  and  _613
REMARK  253  A    between atoms: _613  and  _614
REMARK  254  A    between atoms: _613  and  _616
REMARK  255  A    between atoms: _616  and  _617
REMARK                            x       y       z     vdW  Elec       q    Type
REMARK                         _______ _______ _______ _____ _____    ______ ____
ROOT
ATOM      1  CA  MET A   1      66.670   7.996  40.814  0.00  0.00    +0.134 C 
ENDROOT
BRANCH   1   2
ATOM      2  N   MET A   1      67.157   6.979  39.900  0.00  0.00    -0.239 NA
ATOM      3  H   MET A   1      66.815   6.949  38.918  0.00  0.00    +0.142 HD
ENDBRANCH   1   2
BRANCH   1   4
ATOM      4  C   MET A   1      65.720   7.439  41.874  0.00  0.00    +0.224 C 
ATOM      5  O   MET A   1      65.823   7.798  43.043  0.00  0.00    -0.287 OA
ENDBRANCH   1   4
BRANCH   1   6
ATOM      6  CB  MET A   1      66.043   9.156  40.020  0.00  0.00    +0.037 C 
BRANCH   6   7
ATOM      7  CG  MET A   1      67.090   9.855  39.144  0.00  0.00    +0.059 C 
BRANCH   7   8
ATOM      8  SD  MET A   1      66.543  11.307  38.238  0.00  0.00    -0.139 S 
ATOM      9  CE  MET A   1      65.651  10.518  36.889  0.00  0.00    +0.069 C 
ENDBRANCH   7   8
ENDBRANCH   6   7
ENDBRANCH   1   6
TORSDOF 5
REMARK  Name = ../refined-set-2016/1x8t/1x8t_pocket.pdb
REMARK  255 active torsions:
REMARK  status: ('A' for Active; 'I' for Inactive)
REMARK    1  A    between atoms: _1  and  _3
REMARK    2  A    between atoms: _3  and  _4
REMARK    3  A    between atoms: _3  and  _6
REMARK    4  A    between atoms: _6  and  _7
REMARK    5  A    between atoms: _9  and  _11
REMARK    6  A    between atoms: _11  and  _12
REMARK    7  A    between atoms: _11  and  _14
REMARK    8  A    between atoms: _14  and  _15
REMARK    9  A    between atoms: _15  and  _16
REMARK   10  A    between atoms: _16  and  _17
REMARK   11  A    between atoms: _17  and  _18
REMARK   12  A    between atoms: _22  and  _24
REMARK   13  A    between atoms: _24  and  _25
REMARK   14  A    between atoms: _24  and  _27
REMARK   15  A    between atoms: _27  and  _28
REMARK   16  A    between atoms: _30  and  _32
REMARK   17  A    between atoms: _32  and  _33
REMARK   18  A    between atoms: _32  and  _35
REMARK   19  A    between atoms: _38  and  _40
REMARK   20  A    between atoms: _40  and  _41
REMARK   21  A    between atoms: _40  and  _43
REMARK   22  A    between atoms: _43  and  _44
REMARK   23  A    between atoms: _46  and  _48
REMARK   24  A    between atoms: _48  and  _49
REMARK   25  A    between atoms: _48  and  _51
REMARK   26  A    between atoms: _51  and  _52
REMARK   27  A    between atoms: _57  and  _59
REMARK   28  A    between atoms: _59  and  _60
REMARK   29  A    between atoms: _59  and  _62
REMARK   30  A    between atoms: _62  and  _63
REMARK   31  A    between atoms: _63  and  _64
REMARK   32  A    between atoms: _64  and  _65
REMARK   33  A    between atoms: _74  and  _76
REMARK   34  A    between atoms: _76  and  _77
REMARK   35  A    between atoms: _76  and  _79
REMARK   36  A    between atoms: _79  and  _80
REMARK   37  A    between atoms: _83  and  _85
REMARK   38  A    between atoms: _85  and  _86
REMARK   39  A    between atoms: _85  and  _88
REMARK   40  A    between atoms: _88  and  _89
REMARK   41  A    between atoms: _94  and  _96
REMARK   42  A    between atoms: _96  and  _97
REMARK   43  A    between atoms: _100  and  _102
REMARK   44  A    between atoms: _102  and  _103
REMARK   45  A    between atoms: _105  and  _107
REMARK   46  A    between atoms: _107  and  _108
REMARK   47  A    between atoms: _107  and  _110
REMARK   48  A    between atoms: _110  and  _111
REMARK   49  A    between atoms: _114  and  _116
REMARK   50  A    between atoms: _116  and  _117
REMARK   51  A    between atoms: _120  and  _122
REMARK   52  A    between atoms: _122  and  _123
REMARK   53  A    between atoms: _122  and  _125
REMARK   54  A    between atoms: _125  and  _126
REMARK   55  A    between atoms: _126  and  _127
REMARK   56  A    between atoms: _129  and  _131
REMARK   57  A    between atoms: _131  and  _132
REMARK   58  A    between atoms: _131  and  _134
REMARK   59  A    between atoms: _134  and  _135
REMARK   60  A    between atoms: _135  and  _136
REMARK   61  A    between atoms: _136  and  _137
REMARK   62  A    between atoms: _147  and  _148
REMARK   63  A    between atoms: _153  and  _155
REMARK   64  A    between atoms: _155  and  _156
REMARK   65  A    between atoms: _155  and  _158
REMARK   66  A    between atoms: _158  and  _159
REMARK   67  A    between atoms: _159  and  _160
REMARK   68  A    between atoms: _160  and  _161
REMARK   69  A    between atoms: _171  and  _172
REMARK   70  A    between atoms: _177  and  _179
REMARK   71  A    between atoms: _179  and  _180
REMARK   72  A    between atoms: _182  and  _184
REMARK   73  A    between atoms: _184  and  _185
REMARK   74  A    between atoms: _184  and  _187
REMARK   75  A    between atoms: _187  and  _188
REMARK   76  A    between atoms: _190  and  _192
REMARK   77  A    between atoms: _192  and  _193
REMARK   78  A    between atoms: _192  and  _195
REMARK   79  A    between atoms: _198  and  _200
REMARK   80  A    between atoms: _200  and  _201
REMARK   81  A    between atoms: _200  and  _203
REMARK   82  A    between atoms: _203  and  _204
REMARK   83  A    between atoms: _206  and  _208
REMARK   84  A    between atoms: _208  and  _209
REMARK   85  A    between atoms: _208  and  _211
REMARK   86  A    between atoms: _211  and  _212
REMARK   87  A    between atoms: _214  and  _216
REMARK   88  A    between atoms: _216  and  _217
REMARK   89  A    between atoms: _216  and  _219
REMARK   90  A    between atoms: _219  and  _220
REMARK   91  A    between atoms: _220  and  _221
REMARK   92  A    between atoms: _226  and  _228
REMARK   93  A    between atoms: _228  and  _229
REMARK   94  A    between atoms: _228  and  _231
REMARK   95  A    between atoms: _231  and  _232
REMARK   96  A    between atoms: _238  and  _240
REMARK   97  A    between atoms: _240  and  _241
REMARK   98  A    between atoms: _240  and  _243
REMARK   99  A    between atoms: _243  and  _244
REMARK  100  A    between atoms: _247  and  _249
REMARK  101  A    between atoms: _249  and  _250
REMARK  102  A    between atoms: _249  and  _252
REMARK  103  A    between atoms: _252  and  _253
REMARK  104  A    between atoms: _256  and  _258
REMARK  105  A    between atoms: _258  and  _259
REMARK  106  A    between atoms: _262  and  _264
REMARK  107  A    between atoms: _264  and  _265
REMARK  108  A    between atoms: _264  and  _267
REMARK  109  A    between atoms: _267  and  _268
REMARK  110  A    between atoms: _268  and  _269
REMARK  111  A    between atoms: _271  and  _273
REMARK  112  A    between atoms: _273  and  _274
REMARK  113  A    between atoms: _273  and  _276
REMARK  114  A    between atoms: _276  and  _277
REMARK  115  A    between atoms: _280  and  _282
REMARK  116  A    between atoms: _282  and  _283
REMARK  117  A    between atoms: _282  and  _285
REMARK  118  A    between atoms: _288  and  _290
REMARK  119  A    between atoms: _290  and  _291
REMARK  120  A    between atoms: _290  and  _293
REMARK  121  A    between atoms: _293  and  _294
REMARK  122  A    between atoms: _296  and  _298
REMARK  123  A    between atoms: _298  and  _299
REMARK  124  A    between atoms: _298  and  _301
REMARK  125  A    between atoms: _301  and  _302
REMARK  126  A    between atoms: _302  and  _303
REMARK  127  A    between atoms: _303  and  _304
REMARK  128  A    between atoms: _304  and  _305
REMARK  129  A    between atoms: _310  and  _311
REMARK  130  A    between atoms: _316  and  _318
REMARK  131  A    between atoms: _318  and  _319
REMARK  132  A    between atoms: _318  and  _321
REMARK  133  A    between atoms: _321  and  _322
REMARK  134  A    between atoms: _327  and  _328
REMARK  135  A    between atoms: _330  and  _332
REMARK  136  A    between atoms: _332  and  _333
REMARK  137  A    between atoms: _332  and  _335
REMARK  138  A    between atoms: _335  and  _336
REMARK  139  A    between atoms: _339  and  _341
REMARK  140  A    between atoms: _341  and  _342
REMARK  141  A    between atoms: _341  and  _344
REMARK  142  A    between atoms: _344  and  _345
REMARK  143  A    between atoms: _348  and  _350
REMARK  144  A    between atoms: _350  and  _351
REMARK  145  A    between atoms: _350  and  _353
REMARK  146  A    between atoms: _353  and  _354
REMARK  147  A    between atoms: _357  and  _359
REMARK  148  A    between atoms: _359  and  _360
REMARK  149  A    between atoms: _359  and  _362
REMARK  150  A    between atoms: _362  and  _363
REMARK  151  A    between atoms: _366  and  _368
REMARK  152  A    between atoms: _368  and  _369
REMARK  153  A    between atoms: _368  and  _371
REMARK  154  A    between atoms: _371  and  _372
REMARK  155  A    between atoms: _374  and  _376
REMARK  156  A    between atoms: _376  and  _377
REMARK  157  A    between atoms: _376  and  _379
REMARK  158  A    between atoms: _379  and  _380
REMARK  159  A    between atoms: _385  and  _386
REMARK  160  A    between atoms: _388  and  _390
REMARK  161  A    between atoms: _390  and  _391
REMARK  162  A    between atoms: _390  and  _393
REMARK  163  A    between atoms: _393  and  _394
REMARK  164  A    between atoms: _397  and  _399
REMARK  165  A    between atoms: _399  and  _400
REMARK  166  A    between atoms: _399  and  _402
REMARK  167  A    between atoms: _402  and  _403
REMARK  168  A    between atoms: _408  and  _410
REMARK  169  A    between atoms: _410  and  _411
REMARK  170  A    between atoms: _410  and  _413
REMARK  171  A    between atoms: _413  and  _414
REMARK  172  A    between atoms: _418  and  _419
REMARK  173  A    between atoms: _424  and  _426
REMARK  174  A    between atoms: _426  and  _427
REMARK  175  A    between atoms: _426  and  _429
REMARK  176  A    between atoms: _429  and  _430
REMARK  177  A    between atoms: _433  and  _435
REMARK  178  A    between atoms: _435  and  _436
REMARK  179  A    between atoms: _439  and  _441
REMARK  180  A    between atoms: _441  and  _442
REMARK  181  A    between atoms: _441  and  _444
REMARK  182  A    between atoms: _444  and  _445
REMARK  183  A    between atoms: _445  and  _446
REMARK  184  A    between atoms: _448  and  _450
REMARK  185  A    between atoms: _450  and  _451
REMARK  186  A    between atoms: _450  and  _453
REMARK  187  A    between atoms: _453  and  _454
REMARK  188  A    between atoms: _459  and  _461
REMARK  189  A    between atoms: _461  and  _462
REMARK  190  A    between atoms: _461  and  _464
REMARK  191  A    between atoms: _464  and  _465
REMARK  192  A    between atoms: _475  and  _477
REMARK  193  A    between atoms: _477  and  _478
REMARK  194  A    between atoms: _477  and  _480
REMARK  195  A    between atoms: _483  and  _485
REMARK  196  A    between atoms: _485  and  _486
REMARK  197  A    between atoms: _485  and  _488
REMARK  198  A    between atoms: _488  and  _489
REMARK  199  A    between atoms: _489  and  _490
REMARK  200  A    between atoms: _490  and  _491
REMARK  201  A    between atoms: _491  and  _492
REMARK  202  A    between atoms: _496  and  _498
REMARK  203  A    between atoms: _498  and  _499
REMARK  204  A    between atoms: _498  and  _501
REMARK  205  A    between atoms: _501  and  _502
REMARK  206  A    between atoms: _502  and  _503
REMARK  207  A    between atoms: _506  and  _508
REMARK  208  A    between atoms: _508  and  _509
REMARK  209  A    between atoms: _508  and  _511
REMARK  210  A    between atoms: _511  and  _512
REMARK  211  A    between atoms: _515  and  _517
REMARK  212  A    between atoms: _517  and  _518
REMARK  213  A    between atoms: _517  and  _520
REMARK  214  A    between atoms: _520  and  _521
REMARK  215  A    between atoms: _521  and  _522
REMARK  216  A    between atoms: _522  and  _523
REMARK  217  A    between atoms: _532  and  _534
REMARK  218  A    between atoms: _534  and  _535
REMARK  219  A    between atoms: _534  and  _537
REMARK  220  A    between atoms: _537  and  _538
REMARK  221  A    between atoms: _543  and  _545
REMARK  222  A    between atoms: _545  and  _546
REMARK  223  A    between atoms: _545  and  _548
REMARK  224  A    between atoms: _548  and  _549
REMARK  225  A    between atoms: _552  and  _554
REMARK  226  A    between atoms: _554  and  _555
REMARK  227  A    between atoms: _554  and  _557
REMARK  228  A    between atoms: _557  and  _558
REMARK  229  A    between atoms: _563  and  _565
REMARK  230  A    between atoms: _565  and  _566
REMARK  231  A    between atoms: _565  and  _568
REMARK  232  A    between atoms: _568  and  _569
REMARK  233  A    between atoms: _569  and  _570
REMARK  234  A    between atoms: _570  and  _571
REMARK  235  A    between atoms: _580  and  _582
REMARK  236  A    between atoms: _582  and  _583
REMARK  237  A    between atoms: _582  and  _585
REMARK  238  A    between atoms: _585  and  _586
REMARK  239  A    between atoms: _586  and  _587
REMARK  240  A    between atoms: _589  and  _591
REMARK  241  A    between atoms: _591  and  _592
REMARK  242  A    between atoms: _591  and  _594
REMARK  243  A    between atoms: _594  and  _595
REMARK  244  A    between atoms: _595  and  _596
REMARK  245  A    between atoms: _598  and  _600
REMARK  246  A    between atoms: _600  and  _601
REMARK  247  A    between atoms: _600  and  _603
REMARK  248  A    between atoms: _603  and  _604
REMARK  249  A    between atoms: _604  and  _605
REMARK  250  A    between atoms: _605  and  _606
REMARK  251  A    between atoms: _606  and  _607
REMARK  252  A    between atoms: _611  and  _613
REMARK  253  A    between atoms: _613  and  _614
REMARK  254  A    between atoms: _613  and  _616
REMARK  255  A    between atoms: _616  and  _617
REMARK                            x       y       z     vdW  Elec       q    Type
REMARK                         _______ _______ _______ _____ _____    ______ ____
ROOT
ATOM      1  CA  LYS A   1      68.592  11.104  30.133  0.00  0.00    +0.145 C 
ENDROOT
BRANCH   1   2
ATOM      2  C   LYS A   1      67.751  12.357  30.407  0.00  0.00    +0.238 C 
ATOM      3  N   THR A   2      67.462  12.613  31.680  0.00  0.00    -0.296 N 
ATOM      4  H   THR A   2      67.809  11.968  32.418  0.00  0.00    +0.150 HD
ATOM      5  O   LYS A   1      67.401  13.093  29.483  0.00  0.00    -0.274 OA
BRANCH   3   6
ATOM      6  CA  THR A   2      66.672  13.774  32.065  0.00  0.00    +0.164 C 
BRANCH   6   7
ATOM      7  C   THR A   2      67.258  14.583  33.213  0.00  0.00    +0.229 C 
ATOM      8  O   THR A   2      66.810  15.699  33.465  0.00  0.00    -0.286 OA
ENDBRANCH   6   7
BRANCH   6   9
ATOM      9  CB  THR A   2      65.255  13.376  32.540  0.00  0.00    +0.136 C 
ATOM     10  CG2 THR A   2      64.481  12.723  31.429  0.00  0.00    +0.034 C 
BRANCH   9  11
ATOM     11  OG1 THR A   2      65.360  12.480  33.659  0.00  0.00    -0.382 OA
ATOM     12  HG1 THR A   2      64.453  12.225  33.963  0.00  0.00    +0.210 HD
ENDBRANCH   9  11
ENDBRANCH   6   9
ENDBRANCH   3   6
ENDBRANCH   1   2
BRANCH   1  13
ATOM     13  N   LYS A   1      69.665  11.018  31.111  0.00  0.00    -0.238 NA
ATOM     14  H   LYS A   1      69.788  10.148  31.668  0.00  0.00    +0.142 HD
ENDBRANCH   1  13
BRANCH   1  15
ATOM     15  CB  LYS A   1      67.708   9.854  30.184  0.00  0.00    +0.026 C 
BRANCH  15  16
ATOM     16  CG  LYS A   1      66.604   9.855  29.138  0.00  0.00    -0.000 C 
BRANCH  16  17
ATOM     17  CD  LYS A   1      65.705   8.642  29.278  0.00  0.00    -0.024 C 
BRANCH  17  18
ATOM     18  CE  LYS A   1      64.464   8.774  28.395  0.00  0.00    -0.086 C 
BRANCH  18  19
ATOM     19  NZ  LYS A   1      64.806   8.813  26.952  0.00  0.00    +0.380 N 
ATOM     20  HZ1 LYS A   1      65.425   9.628  26.765  0.00  0.00    -0.089 HD
ATOM     21  HZ2 LYS A   1      65.298   7.935  26.690  0.00  0.00    -0.089 HD
ATOM     22  HZ3 LYS A   1      63.934   8.903  26.393  0.00  0.00    -0.089 HD
ENDBRANCH  18  19
ENDBRANCH  17  18
ENDBRANCH  16  17
ENDBRANCH  15  16
ENDBRANCH   1  15
TORSDOF 11
REMARK  Name = ../refined-set-2016/1x8t/1x8t_pocket.pdb
REMARK  255 active torsions:
REMARK  status: ('A' for Active; 'I' for Inactive)
REMARK    1  A    between atoms: _1  and  _3
REMARK    2  A    between atoms: _3  and  _4
REMARK    3  A    between atoms: _3  and  _6
REMARK    4  A    between atoms: _6  and  _7
REMARK    5  A    between atoms: _9  and  _11
REMARK    6  A    between atoms: _11  and  _12
REMARK    7  A    between atoms: _11  and  _14
REMARK    8  A    between atoms: _14  and  _15
REMARK    9  A    between atoms: _15  and  _16
REMARK   10  A    between atoms: _16  and  _17
REMARK   11  A    between atoms: _17  and  _18
REMARK   12  A    between atoms: _22  and  _24
REMARK   13  A    between atoms: _24  and  _25
REMARK   14  A    between atoms: _24  and  _27
REMARK   15  A    between atoms: _27  and  _28
REMARK   16  A    between atoms: _30  and  _32
REMARK   17  A    between atoms: _32  and  _33
REMARK   18  A    between atoms: _32  and  _35
REMARK   19  A    between atoms: _38  and  _40
REMARK   20  A    between atoms: _40  and  _41
REMARK   21  A    between atoms: _40  and  _43
REMARK   22  A    between atoms: _43  and  _44
REMARK   23  A    between atoms: _46  and  _48
REMARK   24  A    between atoms: _48  and  _49
REMARK   25  A    between atoms: _48  and  _51
REMARK   26  A    between atoms: _51  and  _52
REMARK   27  A    between atoms: _57  and  _59
REMARK   28  A    between atoms: _59  and  _60
REMARK   29  A    between atoms: _59  and  _62
REMARK   30  A    between atoms: _62  and  _63
REMARK   31  A    between atoms: _63  and  _64
REMARK   32  A    between atoms: _64  and  _65
REMARK   33  A    between atoms: _74  and  _76
REMARK   34  A    between atoms: _76  and  _77
REMARK   35  A    between atoms: _76  and  _79
REMARK   36  A    between atoms: _79  and  _80
REMARK   37  A    between atoms: _83  and  _85
REMARK   38  A    between atoms: _85  and  _86
REMARK   39  A    between atoms: _85  and  _88
REMARK   40  A    between atoms: _88  and  _89
REMARK   41  A    between atoms: _94  and  _96
REMARK   42  A    between atoms: _96  and  _97
REMARK   43  A    between atoms: _100  and  _102
REMARK   44  A    between atoms: _102  and  _103
REMARK   45  A    between atoms: _105  and  _107
REMARK   46  A    between atoms: _107  and  _108
REMARK   47  A    between atoms: _107  and  _110
REMARK   48  A    between atoms: _110  and  _111
REMARK   49  A    between atoms: _114  and  _116
REMARK   50  A    between atoms: _116  and  _117
REMARK   51  A    between atoms: _120  and  _122
REMARK   52  A    between atoms: _122  and  _123
REMARK   53  A    between atoms: _122  and  _125
REMARK   54  A    between atoms: _125  and  _126
REMARK   55  A    between atoms: _126  and  _127
REMARK   56  A    between atoms: _129  and  _131
REMARK   57  A    between atoms: _131  and  _132
REMARK   58  A    between atoms: _131  and  _134
REMARK   59  A    between atoms: _134  and  _135
REMARK   60  A    between atoms: _135  and  _136
REMARK   61  A    between atoms: _136  and  _137
REMARK   62  A    between atoms: _147  and  _148
REMARK   63  A    between atoms: _153  and  _155
REMARK   64  A    between atoms: _155  and  _156
REMARK   65  A    between atoms: _155  and  _158
REMARK   66  A    between atoms: _158  and  _159
REMARK   67  A    between atoms: _159  and  _160
REMARK   68  A    between atoms: _160  and  _161
REMARK   69  A    between atoms: _171  and  _172
REMARK   70  A    between atoms: _177  and  _179
REMARK   71  A    between atoms: _179  and  _180
REMARK   72  A    between atoms: _182  and  _184
REMARK   73  A    between atoms: _184  and  _185
REMARK   74  A    between atoms: _184  and  _187
REMARK   75  A    between atoms: _187  and  _188
REMARK   76  A    between atoms: _190  and  _192
REMARK   77  A    between atoms: _192  and  _193
REMARK   78  A    between atoms: _192  and  _195
REMARK   79  A    between atoms: _198  and  _200
REMARK   80  A    between atoms: _200  and  _201
REMARK   81  A    between atoms: _200  and  _203
REMARK   82  A    between atoms: _203  and  _204
REMARK   83  A    between atoms: _206  and  _208
REMARK   84  A    between atoms: _208  and  _209
REMARK   85  A    between atoms: _208  and  _211
REMARK   86  A    between atoms: _211  and  _212
REMARK   87  A    between atoms: _214  and  _216
REMARK   88  A    between atoms: _216  and  _217
REMARK   89  A    between atoms: _216  and  _219
REMARK   90  A    between atoms: _219  and  _220
REMARK   91  A    between atoms: _220  and  _221
REMARK   92  A    between atoms: _226  and  _228
REMARK   93  A    between atoms: _228  and  _229
REMARK   94  A    between atoms: _228  and  _231
REMARK   95  A    between atoms: _231  and  _232
REMARK   96  A    between atoms: _238  and  _240
REMARK   97  A    between atoms: _240  and  _241
REMARK   98  A    between atoms: _240  and  _243
REMARK   99  A    between atoms: _243  and  _244
REMARK  100  A    between atoms: _247  and  _249
REMARK  101  A    between atoms: _249  and  _250
REMARK  102  A    between atoms: _249  and  _252
REMARK  103  A    between atoms: _252  and  _253
REMARK  104  A    between atoms: _256  and  _258
REMARK  105  A    between atoms: _258  and  _259
REMARK  106  A    between atoms: _262  and  _264
REMARK  107  A    between atoms: _264  and  _265
REMARK  108  A    between atoms: _264  and  _267
REMARK  109  A    between atoms: _267  and  _268
REMARK  110  A    between atoms: _268  and  _269
REMARK  111  A    between atoms: _271  and  _273
REMARK  112  A    between atoms: _273  and  _274
REMARK  113  A    between atoms: _273  and  _276
REMARK  114  A    between atoms: _276  and  _277
REMARK  115  A    between atoms: _280  and  _282
REMARK  116  A    between atoms: _282  and  _283
REMARK  117  A    between atoms: _282  and  _285
REMARK  118  A    between atoms: _288  and  _290
REMARK  119  A    between atoms: _290  and  _291
REMARK  120  A    between atoms: _290  and  _293
REMARK  121  A    between atoms: _293  and  _294
REMARK  122  A    between atoms: _296  and  _298
REMARK  123  A    between atoms: _298  and  _299
REMARK  124  A    between atoms: _298  and  _301
REMARK  125  A    between atoms: _301  and  _302
REMARK  126  A    between atoms: _302  and  _303
REMARK  127  A    between atoms: _303  and  _304
REMARK  128  A    between atoms: _304  and  _305
REMARK  129  A    between atoms: _310  and  _311
REMARK  130  A    between atoms: _316  and  _318
REMARK  131  A    between atoms: _318  and  _319
REMARK  132  A    between atoms: _318  and  _321
REMARK  133  A    between atoms: _321  and  _322
REMARK  134  A    between atoms: _327  and  _328
REMARK  135  A    between atoms: _330  and  _332
REMARK  136  A    between atoms: _332  and  _333
REMARK  137  A    between atoms: _332  and  _335
REMARK  138  A    between atoms: _335  and  _336
REMARK  139  A    between atoms: _339  and  _341
REMARK  140  A    between atoms: _341  and  _342
REMARK  141  A    between atoms: _341  and  _344
REMARK  142  A    between atoms: _344  and  _345
REMARK  143  A    between atoms: _348  and  _350
REMARK  144  A    between atoms: _350  and  _351
REMARK  145  A    between atoms: _350  and  _353
REMARK  146  A    between atoms: _353  and  _354
REMARK  147  A    between atoms: _357  and  _359
REMARK  148  A    between atoms: _359  and  _360
REMARK  149  A    between atoms: _359  and  _362
REMARK  150  A    between atoms: _362  and  _363
REMARK  151  A    between atoms: _366  and  _368
REMARK  152  A    between atoms: _368  and  _369
REMARK  153  A    between atoms: _368  and  _371
REMARK  154  A    between atoms: _371  and  _372
REMARK  155  A    between atoms: _374  and  _376
REMARK  156  A    between atoms: _376  and  _377
REMARK  157  A    between atoms: _376  and  _379
REMARK  158  A    between atoms: _379  and  _380
REMARK  159  A    between atoms: _385  and  _386
REMARK  160  A    between atoms: _388  and  _390
REMARK  161  A    between atoms: _390  and  _391
REMARK  162  A    between atoms: _390  and  _393
REMARK  163  A    between atoms: _393  and  _394
REMARK  164  A    between atoms: _397  and  _399
REMARK  165  A    between atoms: _399  and  _400
REMARK  166  A    between atoms: _399  and  _402
REMARK  167  A    between atoms: _402  and  _403
REMARK  168  A    between atoms: _408  and  _410
REMARK  169  A    between atoms: _410  and  _411
REMARK  170  A    between atoms: _410  and  _413
REMARK  171  A    between atoms: _413  and  _414
REMARK  172  A    between atoms: _418  and  _419
REMARK  173  A    between atoms: _424  and  _426
REMARK  174  A    between atoms: _426  and  _427
REMARK  175  A    between atoms: _426  and  _429
REMARK  176  A    between atoms: _429  and  _430
REMARK  177  A    between atoms: _433  and  _435
REMARK  178  A    between atoms: _435  and  _436
REMARK  179  A    between atoms: _439  and  _441
REMARK  180  A    between atoms: _441  and  _442
REMARK  181  A    between atoms: _441  and  _444
REMARK  182  A    between atoms: _444  and  _445
REMARK  183  A    between atoms: _445  and  _446
REMARK  184  A    between atoms: _448  and  _450
REMARK  185  A    between atoms: _450  and  _451
REMARK  186  A    between atoms: _450  and  _453
REMARK  187  A    between atoms: _453  and  _454
REMARK  188  A    between atoms: _459  and  _461
REMARK  189  A    between atoms: _461  and  _462
REMARK  190  A    between atoms: _461  and  _464
REMARK  191  A    between atoms: _464  and  _465
REMARK  192  A    between atoms: _475  and  _477
REMARK  193  A    between atoms: _477  and  _478
REMARK  194  A    between atoms: _477  and  _480
REMARK  195  A    between atoms: _483  and  _485
REMARK  196  A    between atoms: _485  and  _486
REMARK  197  A    between atoms: _485  and  _488
REMARK  198  A    between atoms: _488  and  _489
REMARK  199  A    between atoms: _489  and  _490
REMARK  200  A    between atoms: _490  and  _491
REMARK  201  A    between atoms: _491  and  _492
REMARK  202  A    between atoms: _496  and  _498
REMARK  203  A    between atoms: _498  and  _499
REMARK  204  A    between atoms: _498  and  _501
REMARK  205  A    between atoms: _501  and  _502
REMARK  206  A    between atoms: _502  and  _503
REMARK  207  A    between atoms: _506  and  _508
REMARK  208  A    between atoms: _508  and  _509
REMARK  209  A    between atoms: _508  and  _511
REMARK  210  A    between atoms: _511  and  _512
REMARK  211  A    between atoms: _515  and  _517
REMARK  212  A    between atoms: _517  and  _518
REMARK  213  A    between atoms: _517  and  _520
REMARK  214  A    between atoms: _520  and  _521
REMARK  215  A    between atoms: _521  and  _522
REMARK  216  A    between atoms: _522  and  _523
REMARK  217  A    between atoms: _532  and  _534
REMARK  218  A    between atoms: _534  and  _535
REMARK  219  A    between atoms: _534  and  _537
REMARK  220  A    between atoms: _537  and  _538
REMARK  221  A    between atoms: _543  and  _545
REMARK  222  A    between atoms: _545  and  _546
REMARK  223  A    between atoms: _545  and  _548
REMARK  224  A    between atoms: _548  and  _549
REMARK  225  A    between atoms: _552  and  _554
REMARK  226  A    between atoms: _554  and  _555
REMARK  227  A    between atoms: _554  and  _557
REMARK  228  A    between atoms: _557  and  _558
REMARK  229  A    between atoms: _563  and  _565
REMARK  230  A    between atoms: _565  and  _566
REMARK  231  A    between atoms: _565  and  _568
REMARK  232  A    between atoms: _568  and  _569
REMARK  233  A    between atoms: _569  and  _570
REMARK  234  A    between atoms: _570  and  _571
REMARK  235  A    between atoms: _580  and  _582
REMARK  236  A    between atoms: _582  and  _583
REMARK  237  A    between atoms: _582  and  _585
REMARK  238  A    between atoms: _585  and  _586
REMARK  239  A    between atoms: _586  and  _587
REMARK  240  A    between atoms: _589  and  _591
REMARK  241  A    between atoms: _591  and  _592
REMARK  242  A    between atoms: _591  and  _594
REMARK  243  A    between atoms: _594  and  _595
REMARK  244  A    between atoms: _595  and  _596
REMARK  245  A    between atoms: _598  and  _600
REMARK  246  A    between atoms: _600  and  _601
REMARK  247  A    between atoms: _600  and  _603
REMARK  248  A    between atoms: _603  and  _604
REMARK  249  A    between atoms: _604  and  _605
REMARK  250  A    between atoms: _605  and  _606
REMARK  251  A    between atoms: _606  and  _607
REMARK  252  A    between atoms: _611  and  _613
REMARK  253  A    between atoms: _613  and  _614
REMARK  254  A    between atoms: _613  and  _616
REMARK  255  A    between atoms: _616  and  _617
REMARK                            x       y       z     vdW  Elec       q    Type
REMARK                         _______ _______ _______ _____ _____    ______ ____
ROOT
ATOM      1  O   HOH     1      52.308  12.689  25.331  0.00  0.00    +0.000 OA
ENDROOT
TORSDOF 0
REMARK  Name = ../refined-set-2016/1x8t/1x8t_pocket.pdb
REMARK  255 active torsions:
REMARK  status: ('A' for Active; 'I' for Inactive)
REMARK    1  A    between atoms: _1  and  _3
REMARK    2  A    between atoms: _3  and  _4
REMARK    3  A    between atoms: _3  and  _6
REMARK    4  A    between atoms: _6  and  _7
REMARK    5  A    between atoms: _9  and  _11
REMARK    6  A    between atoms: _11  and  _12
REMARK    7  A    between atoms: _11  and  _14
REMARK    8  A    between atoms: _14  and  _15
REMARK    9  A    between atoms: _15  and  _16
REMARK   10  A    between atoms: _16  and  _17
REMARK   11  A    between atoms: _17  and  _18
REMARK   12  A    between atoms: _22  and  _24
REMARK   13  A    between atoms: _24  and  _25
REMARK   14  A    between atoms: _24  and  _27
REMARK   15  A    between atoms: _27  and  _28
REMARK   16  A    between atoms: _30  and  _32
REMARK   17  A    between atoms: _32  and  _33
REMARK   18  A    between atoms: _32  and  _35
REMARK   19  A    between atoms: _38  and  _40
REMARK   20  A    between atoms: _40  and  _41
REMARK   21  A    between atoms: _40  and  _43
REMARK   22  A    between atoms: _43  and  _44
REMARK   23  A    between atoms: _46  and  _48
REMARK   24  A    between atoms: _48  and  _49
REMARK   25  A    between atoms: _48  and  _51
REMARK   26  A    between atoms: _51  and  _52
REMARK   27  A    between atoms: _57  and  _59
REMARK   28  A    between atoms: _59  and  _60
REMARK   29  A    between atoms: _59  and  _62
REMARK   30  A    between atoms: _62  and  _63
REMARK   31  A    between atoms: _63  and  _64
REMARK   32  A    between atoms: _64  and  _65
REMARK   33  A    between atoms: _74  and  _76
REMARK   34  A    between atoms: _76  and  _77
REMARK   35  A    between atoms: _76  and  _79
REMARK   36  A    between atoms: _79  and  _80
REMARK   37  A    between atoms: _83  and  _85
REMARK   38  A    between atoms: _85  and  _86
REMARK   39  A    between atoms: _85  and  _88
REMARK   40  A    between atoms: _88  and  _89
REMARK   41  A    between atoms: _94  and  _96
REMARK   42  A    between atoms: _96  and  _97
REMARK   43  A    between atoms: _100  and  _102
REMARK   44  A    between atoms: _102  and  _103
REMARK   45  A    between atoms: _105  and  _107
REMARK   46  A    between atoms: _107  and  _108
REMARK   47  A    between atoms: _107  and  _110
REMARK   48  A    between atoms: _110  and  _111
REMARK   49  A    between atoms: _114  and  _116
REMARK   50  A    between atoms: _116  and  _117
REMARK   51  A    between atoms: _120  and  _122
REMARK   52  A    between atoms: _122  and  _123
REMARK   53  A    between atoms: _122  and  _125
REMARK   54  A    between atoms: _125  and  _126
REMARK   55  A    between atoms: _126  and  _127
REMARK   56  A    between atoms: _129  and  _131
REMARK   57  A    between atoms: _131  and  _132
REMARK   58  A    between atoms: _131  and  _134
REMARK   59  A    between atoms: _134  and  _135
REMARK   60  A    between atoms: _135  and  _136
REMARK   61  A    between atoms: _136  and  _137
REMARK   62  A    between atoms: _147  and  _148
REMARK   63  A    between atoms: _153  and  _155
REMARK   64  A    between atoms: _155  and  _156
REMARK   65  A    between atoms: _155  and  _158
REMARK   66  A    between atoms: _158  and  _159
REMARK   67  A    between atoms: _159  and  _160
REMARK   68  A    between atoms: _160  and  _161
REMARK   69  A    between atoms: _171  and  _172
REMARK   70  A    between atoms: _177  and  _179
REMARK   71  A    between atoms: _179  and  _180
REMARK   72  A    between atoms: _182  and  _184
REMARK   73  A    between atoms: _184  and  _185
REMARK   74  A    between atoms: _184  and  _187
REMARK   75  A    between atoms: _187  and  _188
REMARK   76  A    between atoms: _190  and  _192
REMARK   77  A    between atoms: _192  and  _193
REMARK   78  A    between atoms: _192  and  _195
REMARK   79  A    between atoms: _198  and  _200
REMARK   80  A    between atoms: _200  and  _201
REMARK   81  A    between atoms: _200  and  _203
REMARK   82  A    between atoms: _203  and  _204
REMARK   83  A    between atoms: _206  and  _208
REMARK   84  A    between atoms: _208  and  _209
REMARK   85  A    between atoms: _208  and  _211
REMARK   86  A    between atoms: _211  and  _212
REMARK   87  A    between atoms: _214  and  _216
REMARK   88  A    between atoms: _216  and  _217
REMARK   89  A    between atoms: _216  and  _219
REMARK   90  A    between atoms: _219  and  _220
REMARK   91  A    between atoms: _220  and  _221
REMARK   92  A    between atoms: _226  and  _228
REMARK   93  A    between atoms: _228  and  _229
REMARK   94  A    between atoms: _228  and  _231
REMARK   95  A    between atoms: _231  and  _232
REMARK   96  A    between atoms: _238  and  _240
REMARK   97  A    between atoms: _240  and  _241
REMARK   98  A    between atoms: _240  and  _243
REMARK   99  A    between atoms: _243  and  _244
REMARK  100  A    between atoms: _247  and  _249
REMARK  101  A    between atoms: _249  and  _250
REMARK  102  A    between atoms: _249  and  _252
REMARK  103  A    between atoms: _252  and  _253
REMARK  104  A    between atoms: _256  and  _258
REMARK  105  A    between atoms: _258  and  _259
REMARK  106  A    between atoms: _262  and  _264
REMARK  107  A    between atoms: _264  and  _265
REMARK  108  A    between atoms: _264  and  _267
REMARK  109  A    between atoms: _267  and  _268
REMARK  110  A    between atoms: _268  and  _269
REMARK  111  A    between atoms: _271  and  _273
REMARK  112  A    between atoms: _273  and  _274
REMARK  113  A    between atoms: _273  and  _276
REMARK  114  A    between atoms: _276  and  _277
REMARK  115  A    between atoms: _280  and  _282
REMARK  116  A    between atoms: _282  and  _283
REMARK  117  A    between atoms: _282  and  _285
REMARK  118  A    between atoms: _288  and  _290
REMARK  119  A    between atoms: _290  and  _291
REMARK  120  A    between atoms: _290  and  _293
REMARK  121  A    between atoms: _293  and  _294
REMARK  122  A    between atoms: _296  and  _298
REMARK  123  A    between atoms: _298  and  _299
REMARK  124  A    between atoms: _298  and  _301
REMARK  125  A    between atoms: _301  and  _302
REMARK  126  A    between atoms: _302  and  _303
REMARK  127  A    between atoms: _303  and  _304
REMARK  128  A    between atoms: _304  and  _305
REMARK  129  A    between atoms: _310  and  _311
REMARK  130  A    between atoms: _316  and  _318
REMARK  131  A    between atoms: _318  and  _319
REMARK  132  A    between atoms: _318  and  _321
REMARK  133  A    between atoms: _321  and  _322
REMARK  134  A    between atoms: _327  and  _328
REMARK  135  A    between atoms: _330  and  _332
REMARK  136  A    between atoms: _332  and  _333
REMARK  137  A    between atoms: _332  and  _335
REMARK  138  A    between atoms: _335  and  _336
REMARK  139  A    between atoms: _339  and  _341
REMARK  140  A    between atoms: _341  and  _342
REMARK  141  A    between atoms: _341  and  _344
REMARK  142  A    between atoms: _344  and  _345
REMARK  143  A    between atoms: _348  and  _350
REMARK  144  A    between atoms: _350  and  _351
REMARK  145  A    between atoms: _350  and  _353
REMARK  146  A    between atoms: _353  and  _354
REMARK  147  A    between atoms: _357  and  _359
REMARK  148  A    between atoms: _359  and  _360
REMARK  149  A    between atoms: _359  and  _362
REMARK  150  A    between atoms: _362  and  _363
REMARK  151  A    between atoms: _366  and  _368
REMARK  152  A    between atoms: _368  and  _369
REMARK  153  A    between atoms: _368  and  _371
REMARK  154  A    between atoms: _371  and  _372
REMARK  155  A    between atoms: _374  and  _376
REMARK  156  A    between atoms: _376  and  _377
REMARK  157  A    between atoms: _376  and  _379
REMARK  158  A    between atoms: _379  and  _380
REMARK  159  A    between atoms: _385  and  _386
REMARK  160  A    between atoms: _388  and  _390
REMARK  161  A    between atoms: _390  and  _391
REMARK  162  A    between atoms: _390  and  _393
REMARK  163  A    between atoms: _393  and  _394
REMARK  164  A    between atoms: _397  and  _399
REMARK  165  A    between atoms: _399  and  _400
REMARK  166  A    between atoms: _399  and  _402
REMARK  167  A    between atoms: _402  and  _403
REMARK  168  A    between atoms: _408  and  _410
REMARK  169  A    between atoms: _410  and  _411
REMARK  170  A    between atoms: _410  and  _413
REMARK  171  A    between atoms: _413  and  _414
REMARK  172  A    between atoms: _418  and  _419
REMARK  173  A    between atoms: _424  and  _426
REMARK  174  A    between atoms: _426  and  _427
REMARK  175  A    between atoms: _426  and  _429
REMARK  176  A    between atoms: _429  and  _430
REMARK  177  A    between atoms: _433  and  _435
REMARK  178  A    between atoms: _435  and  _436
REMARK  179  A    between atoms: _439  and  _441
REMARK  180  A    between atoms: _441  and  _442
REMARK  181  A    between atoms: _441  and  _444
REMARK  182  A    between atoms: _444  and  _445
REMARK  183  A    between atoms: _445  and  _446
REMARK  184  A    between atoms: _448  and  _450
REMARK  185  A    between atoms: _450  and  _451
REMARK  186  A    between atoms: _450  and  _453
REMARK  187  A    between atoms: _453  and  _454
REMARK  188  A    between atoms: _459  and  _461
REMARK  189  A    between atoms: _461  and  _462
REMARK  190  A    between atoms: _461  and  _464
REMARK  191  A    between atoms: _464  and  _465
REMARK  192  A    between atoms: _475  and  _477
REMARK  193  A    between atoms: _477  and  _478
REMARK  194  A    between atoms: _477  and  _480
REMARK  195  A    between atoms: _483  and  _485
REMARK  196  A    between atoms: _485  and  _486
REMARK  197  A    between atoms: _485  and  _488
REMARK  198  A    between atoms: _488  and  _489
REMARK  199  A    between atoms: _489  and  _490
REMARK  200  A    between atoms: _490  and  _491
REMARK  201  A    between atoms: _491  and  _492
REMARK  202  A    between atoms: _496  and  _498
REMARK  203  A    between atoms: _498  and  _499
REMARK  204  A    between atoms: _498  and  _501
REMARK  205  A    between atoms: _501  and  _502
REMARK  206  A    between atoms: _502  and  _503
REMARK  207  A    between atoms: _506  and  _508
REMARK  208  A    between atoms: _508  and  _509
REMARK  209  A    between atoms: _508  and  _511
REMARK  210  A    between atoms: _511  and  _512
REMARK  211  A    between atoms: _515  and  _517
REMARK  212  A    between atoms: _517  and  _518
REMARK  213  A    between atoms: _517  and  _520
REMARK  214  A    between atoms: _520  and  _521
REMARK  215  A    between atoms: _521  and  _522
REMARK  216  A    between atoms: _522  and  _523
REMARK  217  A    between atoms: _532  and  _534
REMARK  218  A    between atoms: _534  and  _535
REMARK  219  A    between atoms: _534  and  _537
REMARK  220  A    between atoms: _537  and  _538
REMARK  221  A    between atoms: _543  and  _545
REMARK  222  A    between atoms: _545  and  _546
REMARK  223  A    between atoms: _545  and  _548
REMARK  224  A    between atoms: _548  and  _549
REMARK  225  A    between atoms: _552  and  _554
REMARK  226  A    between atoms: _554  and  _555
REMARK  227  A    between atoms: _554  and  _557
REMARK  228  A    between atoms: _557  and  _558
REMARK  229  A    between atoms: _563  and  _565
REMARK  230  A    between atoms: _565  and  _566
REMARK  231  A    between atoms: _565  and  _568
REMARK  232  A    between atoms: _568  and  _569
REMARK  233  A    between atoms: _569  and  _570
REMARK  234  A    between atoms: _570  and  _571
REMARK  235  A    between atoms: _580  and  _582
REMARK  236  A    between atoms: _582  and  _583
REMARK  237  A    between atoms: _582  and  _585
REMARK  238  A    between atoms: _585  and  _586
REMARK  239  A    between atoms: _586  and  _587
REMARK  240  A    between atoms: _589  and  _591
REMARK  241  A    between atoms: _591  and  _592
REMARK  242  A    between atoms: _591  and  _594
REMARK  243  A    between atoms: _594  and  _595
REMARK  244  A    between atoms: _595  and  _596
REMARK  245  A    between atoms: _598  and  _600
REMARK  246  A    between atoms: _600  and  _601
REMARK  247  A    between atoms: _600  and  _603
REMARK  248  A    between atoms: _603  and  _604
REMARK  249  A    between atoms: _604  and  _605
REMARK  250  A    between atoms: _605  and  _606
REMARK  251  A    between atoms: _606  and  _607
REMARK  252  A    between atoms: _611  and  _613
REMARK  253  A    between atoms: _613  and  _614
REMARK  254  A    between atoms: _613  and  _616
REMARK  255  A    between atoms: _616  and  _617
REMARK                            x       y       z     vdW  Elec       q    Type
REMARK                         _______ _______ _______ _____ _____    ______ ____
ROOT
ATOM      1  O   HOH     1      60.122   8.103  39.263  0.00  0.00    +0.000 OA
ENDROOT
TORSDOF 0
REMARK  Name = ../refined-set-2016/1x8t/1x8t_pocket.pdb
REMARK  255 active torsions:
REMARK  status: ('A' for Active; 'I' for Inactive)
REMARK    1  A    between atoms: _1  and  _3
REMARK    2  A    between atoms: _3  and  _4
REMARK    3  A    between atoms: _3  and  _6
REMARK    4  A    between atoms: _6  and  _7
REMARK    5  A    between atoms: _9  and  _11
REMARK    6  A    between atoms: _11  and  _12
REMARK    7  A    between atoms: _11  and  _14
REMARK    8  A    between atoms: _14  and  _15
REMARK    9  A    between atoms: _15  and  _16
REMARK   10  A    between atoms: _16  and  _17
REMARK   11  A    between atoms: _17  and  _18
REMARK   12  A    between atoms: _22  and  _24
REMARK   13  A    between atoms: _24  and  _25
REMARK   14  A    between atoms: _24  and  _27
REMARK   15  A    between atoms: _27  and  _28
REMARK   16  A    between atoms: _30  and  _32
REMARK   17  A    between atoms: _32  and  _33
REMARK   18  A    between atoms: _32  and  _35
REMARK   19  A    between atoms: _38  and  _40
REMARK   20  A    between atoms: _40  and  _41
REMARK   21  A    between atoms: _40  and  _43
REMARK   22  A    between atoms: _43  and  _44
REMARK   23  A    between atoms: _46  and  _48
REMARK   24  A    between atoms: _48  and  _49
REMARK   25  A    between atoms: _48  and  _51
REMARK   26  A    between atoms: _51  and  _52
REMARK   27  A    between atoms: _57  and  _59
REMARK   28  A    between atoms: _59  and  _60
REMARK   29  A    between atoms: _59  and  _62
REMARK   30  A    between atoms: _62  and  _63
REMARK   31  A    between atoms: _63  and  _64
REMARK   32  A    between atoms: _64  and  _65
REMARK   33  A    between atoms: _74  and  _76
REMARK   34  A    between atoms: _76  and  _77
REMARK   35  A    between atoms: _76  and  _79
REMARK   36  A    between atoms: _79  and  _80
REMARK   37  A    between atoms: _83  and  _85
REMARK   38  A    between atoms: _85  and  _86
REMARK   39  A    between atoms: _85  and  _88
REMARK   40  A    between atoms: _88  and  _89
REMARK   41  A    between atoms: _94  and  _96
REMARK   42  A    between atoms: _96  and  _97
REMARK   43  A    between atoms: _100  and  _102
REMARK   44  A    between atoms: _102  and  _103
REMARK   45  A    between atoms: _105  and  _107
REMARK   46  A    between atoms: _107  and  _108
REMARK   47  A    between atoms: _107  and  _110
REMARK   48  A    between atoms: _110  and  _111
REMARK   49  A    between atoms: _114  and  _116
REMARK   50  A    between atoms: _116  and  _117
REMARK   51  A    between atoms: _120  and  _122
REMARK   52  A    between atoms: _122  and  _123
REMARK   53  A    between atoms: _122  and  _125
REMARK   54  A    between atoms: _125  and  _126
REMARK   55  A    between atoms: _126  and  _127
REMARK   56  A    between atoms: _129  and  _131
REMARK   57  A    between atoms: _131  and  _132
REMARK   58  A    between atoms: _131  and  _134
REMARK   59  A    between atoms: _134  and  _135
REMARK   60  A    between atoms: _135  and  _136
REMARK   61  A    between atoms: _136  and  _137
REMARK   62  A    between atoms: _147  and  _148
REMARK   63  A    between atoms: _153  and  _155
REMARK   64  A    between atoms: _155  and  _156
REMARK   65  A    between atoms: _155  and  _158
REMARK   66  A    between atoms: _158  and  _159
REMARK   67  A    between atoms: _159  and  _160
REMARK   68  A    between atoms: _160  and  _161
REMARK   69  A    between atoms: _171  and  _172
REMARK   70  A    between atoms: _177  and  _179
REMARK   71  A    between atoms: _179  and  _180
REMARK   72  A    between atoms: _182  and  _184
REMARK   73  A    between atoms: _184  and  _185
REMARK   74  A    between atoms: _184  and  _187
REMARK   75  A    between atoms: _187  and  _188
REMARK   76  A    between atoms: _190  and  _192
REMARK   77  A    between atoms: _192  and  _193
REMARK   78  A    between atoms: _192  and  _195
REMARK   79  A    between atoms: _198  and  _200
REMARK   80  A    between atoms: _200  and  _201
REMARK   81  A    between atoms: _200  and  _203
REMARK   82  A    between atoms: _203  and  _204
REMARK   83  A    between atoms: _206  and  _208
REMARK   84  A    between atoms: _208  and  _209
REMARK   85  A    between atoms: _208  and  _211
REMARK   86  A    between atoms: _211  and  _212
REMARK   87  A    between atoms: _214  and  _216
REMARK   88  A    between atoms: _216  and  _217
REMARK   89  A    between atoms: _216  and  _219
REMARK   90  A    between atoms: _219  and  _220
REMARK   91  A    between atoms: _220  and  _221
REMARK   92  A    between atoms: _226  and  _228
REMARK   93  A    between atoms: _228  and  _229
REMARK   94  A    between atoms: _228  and  _231
REMARK   95  A    between atoms: _231  and  _232
REMARK   96  A    between atoms: _238  and  _240
REMARK   97  A    between atoms: _240  and  _241
REMARK   98  A    between atoms: _240  and  _243
REMARK   99  A    between atoms: _243  and  _244
REMARK  100  A    between atoms: _247  and  _249
REMARK  101  A    between atoms: _249  and  _250
REMARK  102  A    between atoms: _249  and  _252
REMARK  103  A    between atoms: _252  and  _253
REMARK  104  A    between atoms: _256  and  _258
REMARK  105  A    between atoms: _258  and  _259
REMARK  106  A    between atoms: _262  and  _264
REMARK  107  A    between atoms: _264  and  _265
REMARK  108  A    between atoms: _264  and  _267
REMARK  109  A    between atoms: _267  and  _268
REMARK  110  A    between atoms: _268  and  _269
REMARK  111  A    between atoms: _271  and  _273
REMARK  112  A    between atoms: _273  and  _274
REMARK  113  A    between atoms: _273  and  _276
REMARK  114  A    between atoms: _276  and  _277
REMARK  115  A    between atoms: _280  and  _282
REMARK  116  A    between atoms: _282  and  _283
REMARK  117  A    between atoms: _282  and  _285
REMARK  118  A    between atoms: _288  and  _290
REMARK  119  A    between atoms: _290  and  _291
REMARK  120  A    between atoms: _290  and  _293
REMARK  121  A    between atoms: _293  and  _294
REMARK  122  A    between atoms: _296  and  _298
REMARK  123  A    between atoms: _298  and  _299
REMARK  124  A    between atoms: _298  and  _301
REMARK  125  A    between atoms: _301  and  _302
REMARK  126  A    between atoms: _302  and  _303
REMARK  127  A    between atoms: _303  and  _304
REMARK  128  A    between atoms: _304  and  _305
REMARK  129  A    between atoms: _310  and  _311
REMARK  130  A    between atoms: _316  and  _318
REMARK  131  A    between atoms: _318  and  _319
REMARK  132  A    between atoms: _318  and  _321
REMARK  133  A    between atoms: _321  and  _322
REMARK  134  A    between atoms: _327  and  _328
REMARK  135  A    between atoms: _330  and  _332
REMARK  136  A    between atoms: _332  and  _333
REMARK  137  A    between atoms: _332  and  _335
REMARK  138  A    between atoms: _335  and  _336
REMARK  139  A    between atoms: _339  and  _341
REMARK  140  A    between atoms: _341  and  _342
REMARK  141  A    between atoms: _341  and  _344
REMARK  142  A    between atoms: _344  and  _345
REMARK  143  A    between atoms: _348  and  _350
REMARK  144  A    between atoms: _350  and  _351
REMARK  145  A    between atoms: _350  and  _353
REMARK  146  A    between atoms: _353  and  _354
REMARK  147  A    between atoms: _357  and  _359
REMARK  148  A    between atoms: _359  and  _360
REMARK  149  A    between atoms: _359  and  _362
REMARK  150  A    between atoms: _362  and  _363
REMARK  151  A    between atoms: _366  and  _368
REMARK  152  A    between atoms: _368  and  _369
REMARK  153  A    between atoms: _368  and  _371
REMARK  154  A    between atoms: _371  and  _372
REMARK  155  A    between atoms: _374  and  _376
REMARK  156  A    between atoms: _376  and  _377
REMARK  157  A    between atoms: _376  and  _379
REMARK  158  A    between atoms: _379  and  _380
REMARK  159  A    between atoms: _385  and  _386
REMARK  160  A    between atoms: _388  and  _390
REMARK  161  A    between atoms: _390  and  _391
REMARK  162  A    between atoms: _390  and  _393
REMARK  163  A    between atoms: _393  and  _394
REMARK  164  A    between atoms: _397  and  _399
REMARK  165  A    between atoms: _399  and  _400
REMARK  166  A    between atoms: _399  and  _402
REMARK  167  A    between atoms: _402  and  _403
REMARK  168  A    between atoms: _408  and  _410
REMARK  169  A    between atoms: _410  and  _411
REMARK  170  A    between atoms: _410  and  _413
REMARK  171  A    between atoms: _413  and  _414
REMARK  172  A    between atoms: _418  and  _419
REMARK  173  A    between atoms: _424  and  _426
REMARK  174  A    between atoms: _426  and  _427
REMARK  175  A    between atoms: _426  and  _429
REMARK  176  A    between atoms: _429  and  _430
REMARK  177  A    between atoms: _433  and  _435
REMARK  178  A    between atoms: _435  and  _436
REMARK  179  A    between atoms: _439  and  _441
REMARK  180  A    between atoms: _441  and  _442
REMARK  181  A    between atoms: _441  and  _444
REMARK  182  A    between atoms: _444  and  _445
REMARK  183  A    between atoms: _445  and  _446
REMARK  184  A    between atoms: _448  and  _450
REMARK  185  A    between atoms: _450  and  _451
REMARK  186  A    between atoms: _450  and  _453
REMARK  187  A    between atoms: _453  and  _454
REMARK  188  A    between atoms: _459  and  _461
REMARK  189  A    between atoms: _461  and  _462
REMARK  190  A    between atoms: _461  and  _464
REMARK  191  A    between atoms: _464  and  _465
REMARK  192  A    between atoms: _475  and  _477
REMARK  193  A    between atoms: _477  and  _478
REMARK  194  A    between atoms: _477  and  _480
REMARK  195  A    between atoms: _483  and  _485
REMARK  196  A    between atoms: _485  and  _486
REMARK  197  A    between atoms: _485  and  _488
REMARK  198  A    between atoms: _488  and  _489
REMARK  199  A    between atoms: _489  and  _490
REMARK  200  A    between atoms: _490  and  _491
REMARK  201  A    between atoms: _491  and  _492
REMARK  202  A    between atoms: _496  and  _498
REMARK  203  A    between atoms: _498  and  _499
REMARK  204  A    between atoms: _498  and  _501
REMARK  205  A    between atoms: _501  and  _502
REMARK  206  A    between atoms: _502  and  _503
REMARK  207  A    between atoms: _506  and  _508
REMARK  208  A    between atoms: _508  and  _509
REMARK  209  A    between atoms: _508  and  _511
REMARK  210  A    between atoms: _511  and  _512
REMARK  211  A    between atoms: _515  and  _517
REMARK  212  A    between atoms: _517  and  _518
REMARK  213  A    between atoms: _517  and  _520
REMARK  214  A    between atoms: _520  and  _521
REMARK  215  A    between atoms: _521  and  _522
REMARK  216  A    between atoms: _522  and  _523
REMARK  217  A    between atoms: _532  and  _534
REMARK  218  A    between atoms: _534  and  _535
REMARK  219  A    between atoms: _534  and  _537
REMARK  220  A    between atoms: _537  and  _538
REMARK  221  A    between atoms: _543  and  _545
REMARK  222  A    between atoms: _545  and  _546
REMARK  223  A    between atoms: _545  and  _548
REMARK  224  A    between atoms: _548  and  _549
REMARK  225  A    between atoms: _552  and  _554
REMARK  226  A    between atoms: _554  and  _555
REMARK  227  A    between atoms: _554  and  _557
REMARK  228  A    between atoms: _557  and  _558
REMARK  229  A    between atoms: _563  and  _565
REMARK  230  A    between atoms: _565  and  _566
REMARK  231  A    between atoms: _565  and  _568
REMARK  232  A    between atoms: _568  and  _569
REMARK  233  A    between atoms: _569  and  _570
REMARK  234  A    between atoms: _570  and  _571
REMARK  235  A    between atoms: _580  and  _582
REMARK  236  A    between atoms: _582  and  _583
REMARK  237  A    between atoms: _582  and  _585
REMARK  238  A    between atoms: _585  and  _586
REMARK  239  A    between atoms: _586  and  _587
REMARK  240  A    between atoms: _589  and  _591
REMARK  241  A    between atoms: _591  and  _592
REMARK  242  A    between atoms: _591  and  _594
REMARK  243  A    between atoms: _594  and  _595
REMARK  244  A    between atoms: _595  and  _596
REMARK  245  A    between atoms: _598  and  _600
REMARK  246  A    between atoms: _600  and  _601
REMARK  247  A    between atoms: _600  and  _603
REMARK  248  A    between atoms: _603  and  _604
REMARK  249  A    between atoms: _604  and  _605
REMARK  250  A    between atoms: _605  and  _606
REMARK  251  A    between atoms: _606  and  _607
REMARK  252  A    between atoms: _611  and  _613
REMARK  253  A    between atoms: _613  and  _614
REMARK  254  A    between atoms: _613  and  _616
REMARK  255  A    between atoms: _616  and  _617
REMARK                            x       y       z     vdW  Elec       q    Type
REMARK                         _______ _______ _______ _____ _____    ______ ____
ROOT
ATOM      1  O   HOH     1      62.032  11.311  25.844  0.00  0.00    +0.000 OA
ENDROOT
TORSDOF 0
REMARK  Name = ../refined-set-2016/1x8t/1x8t_pocket.pdb
REMARK  255 active torsions:
REMARK  status: ('A' for Active; 'I' for Inactive)
REMARK    1  A    between atoms: _1  and  _3
REMARK    2  A    between atoms: _3  and  _4
REMARK    3  A    between atoms: _3  and  _6
REMARK    4  A    between atoms: _6  and  _7
REMARK    5  A    between atoms: _9  and  _11
REMARK    6  A    between atoms: _11  and  _12
REMARK    7  A    between atoms: _11  and  _14
REMARK    8  A    between atoms: _14  and  _15
REMARK    9  A    between atoms: _15  and  _16
REMARK   10  A    between atoms: _16  and  _17
REMARK   11  A    between atoms: _17  and  _18
REMARK   12  A    between atoms: _22  and  _24
REMARK   13  A    between atoms: _24  and  _25
REMARK   14  A    between atoms: _24  and  _27
REMARK   15  A    between atoms: _27  and  _28
REMARK   16  A    between atoms: _30  and  _32
REMARK   17  A    between atoms: _32  and  _33
REMARK   18  A    between atoms: _32  and  _35
REMARK   19  A    between atoms: _38  and  _40
REMARK   20  A    between atoms: _40  and  _41
REMARK   21  A    between atoms: _40  and  _43
REMARK   22  A    between atoms: _43  and  _44
REMARK   23  A    between atoms: _46  and  _48
REMARK   24  A    between atoms: _48  and  _49
REMARK   25  A    between atoms: _48  and  _51
REMARK   26  A    between atoms: _51  and  _52
REMARK   27  A    between atoms: _57  and  _59
REMARK   28  A    between atoms: _59  and  _60
REMARK   29  A    between atoms: _59  and  _62
REMARK   30  A    between atoms: _62  and  _63
REMARK   31  A    between atoms: _63  and  _64
REMARK   32  A    between atoms: _64  and  _65
REMARK   33  A    between atoms: _74  and  _76
REMARK   34  A    between atoms: _76  and  _77
REMARK   35  A    between atoms: _76  and  _79
REMARK   36  A    between atoms: _79  and  _80
REMARK   37  A    between atoms: _83  and  _85
REMARK   38  A    between atoms: _85  and  _86
REMARK   39  A    between atoms: _85  and  _88
REMARK   40  A    between atoms: _88  and  _89
REMARK   41  A    between atoms: _94  and  _96
REMARK   42  A    between atoms: _96  and  _97
REMARK   43  A    between atoms: _100  and  _102
REMARK   44  A    between atoms: _102  and  _103
REMARK   45  A    between atoms: _105  and  _107
REMARK   46  A    between atoms: _107  and  _108
REMARK   47  A    between atoms: _107  and  _110
REMARK   48  A    between atoms: _110  and  _111
REMARK   49  A    between atoms: _114  and  _116
REMARK   50  A    between atoms: _116  and  _117
REMARK   51  A    between atoms: _120  and  _122
REMARK   52  A    between atoms: _122  and  _123
REMARK   53  A    between atoms: _122  and  _125
REMARK   54  A    between atoms: _125  and  _126
REMARK   55  A    between atoms: _126  and  _127
REMARK   56  A    between atoms: _129  and  _131
REMARK   57  A    between atoms: _131  and  _132
REMARK   58  A    between atoms: _131  and  _134
REMARK   59  A    between atoms: _134  and  _135
REMARK   60  A    between atoms: _135  and  _136
REMARK   61  A    between atoms: _136  and  _137
REMARK   62  A    between atoms: _147  and  _148
REMARK   63  A    between atoms: _153  and  _155
REMARK   64  A    between atoms: _155  and  _156
REMARK   65  A    between atoms: _155  and  _158
REMARK   66  A    between atoms: _158  and  _159
REMARK   67  A    between atoms: _159  and  _160
REMARK   68  A    between atoms: _160  and  _161
REMARK   69  A    between atoms: _171  and  _172
REMARK   70  A    between atoms: _177  and  _179
REMARK   71  A    between atoms: _179  and  _180
REMARK   72  A    between atoms: _182  and  _184
REMARK   73  A    between atoms: _184  and  _185
REMARK   74  A    between atoms: _184  and  _187
REMARK   75  A    between atoms: _187  and  _188
REMARK   76  A    between atoms: _190  and  _192
REMARK   77  A    between atoms: _192  and  _193
REMARK   78  A    between atoms: _192  and  _195
REMARK   79  A    between atoms: _198  and  _200
REMARK   80  A    between atoms: _200  and  _201
REMARK   81  A    between atoms: _200  and  _203
REMARK   82  A    between atoms: _203  and  _204
REMARK   83  A    between atoms: _206  and  _208
REMARK   84  A    between atoms: _208  and  _209
REMARK   85  A    between atoms: _208  and  _211
REMARK   86  A    between atoms: _211  and  _212
REMARK   87  A    between atoms: _214  and  _216
REMARK   88  A    between atoms: _216  and  _217
REMARK   89  A    between atoms: _216  and  _219
REMARK   90  A    between atoms: _219  and  _220
REMARK   91  A    between atoms: _220  and  _221
REMARK   92  A    between atoms: _226  and  _228
REMARK   93  A    between atoms: _228  and  _229
REMARK   94  A    between atoms: _228  and  _231
REMARK   95  A    between atoms: _231  and  _232
REMARK   96  A    between atoms: _238  and  _240
REMARK   97  A    between atoms: _240  and  _241
REMARK   98  A    between atoms: _240  and  _243
REMARK   99  A    between atoms: _243  and  _244
REMARK  100  A    between atoms: _247  and  _249
REMARK  101  A    between atoms: _249  and  _250
REMARK  102  A    between atoms: _249  and  _252
REMARK  103  A    between atoms: _252  and  _253
REMARK  104  A    between atoms: _256  and  _258
REMARK  105  A    between atoms: _258  and  _259
REMARK  106  A    between atoms: _262  and  _264
REMARK  107  A    between atoms: _264  and  _265
REMARK  108  A    between atoms: _264  and  _267
REMARK  109  A    between atoms: _267  and  _268
REMARK  110  A    between atoms: _268  and  _269
REMARK  111  A    between atoms: _271  and  _273
REMARK  112  A    between atoms: _273  and  _274
REMARK  113  A    between atoms: _273  and  _276
REMARK  114  A    between atoms: _276  and  _277
REMARK  115  A    between atoms: _280  and  _282
REMARK  116  A    between atoms: _282  and  _283
REMARK  117  A    between atoms: _282  and  _285
REMARK  118  A    between atoms: _288  and  _290
REMARK  119  A    between atoms: _290  and  _291
REMARK  120  A    between atoms: _290  and  _293
REMARK  121  A    between atoms: _293  and  _294
REMARK  122  A    between atoms: _296  and  _298
REMARK  123  A    between atoms: _298  and  _299
REMARK  124  A    between atoms: _298  and  _301
REMARK  125  A    between atoms: _301  and  _302
REMARK  126  A    between atoms: _302  and  _303
REMARK  127  A    between atoms: _303  and  _304
REMARK  128  A    between atoms: _304  and  _305
REMARK  129  A    between atoms: _310  and  _311
REMARK  130  A    between atoms: _316  and  _318
REMARK  131  A    between atoms: _318  and  _319
REMARK  132  A    between atoms: _318  and  _321
REMARK  133  A    between atoms: _321  and  _322
REMARK  134  A    between atoms: _327  and  _328
REMARK  135  A    between atoms: _330  and  _332
REMARK  136  A    between atoms: _332  and  _333
REMARK  137  A    between atoms: _332  and  _335
REMARK  138  A    between atoms: _335  and  _336
REMARK  139  A    between atoms: _339  and  _341
REMARK  140  A    between atoms: _341  and  _342
REMARK  141  A    between atoms: _341  and  _344
REMARK  142  A    between atoms: _344  and  _345
REMARK  143  A    between atoms: _348  and  _350
REMARK  144  A    between atoms: _350  and  _351
REMARK  145  A    between atoms: _350  and  _353
REMARK  146  A    between atoms: _353  and  _354
REMARK  147  A    between atoms: _357  and  _359
REMARK  148  A    between atoms: _359  and  _360
REMARK  149  A    between atoms: _359  and  _362
REMARK  150  A    between atoms: _362  and  _363
REMARK  151  A    between atoms: _366  and  _368
REMARK  152  A    between atoms: _368  and  _369
REMARK  153  A    between atoms: _368  and  _371
REMARK  154  A    between atoms: _371  and  _372
REMARK  155  A    between atoms: _374  and  _376
REMARK  156  A    between atoms: _376  and  _377
REMARK  157  A    between atoms: _376  and  _379
REMARK  158  A    between atoms: _379  and  _380
REMARK  159  A    between atoms: _385  and  _386
REMARK  160  A    between atoms: _388  and  _390
REMARK  161  A    between atoms: _390  and  _391
REMARK  162  A    between atoms: _390  and  _393
REMARK  163  A    between atoms: _393  and  _394
REMARK  164  A    between atoms: _397  and  _399
REMARK  165  A    between atoms: _399  and  _400
REMARK  166  A    between atoms: _399  and  _402
REMARK  167  A    between atoms: _402  and  _403
REMARK  168  A    between atoms: _408  and  _410
REMARK  169  A    between atoms: _410  and  _411
REMARK  170  A    between atoms: _410  and  _413
REMARK  171  A    between atoms: _413  and  _414
REMARK  172  A    between atoms: _418  and  _419
REMARK  173  A    between atoms: _424  and  _426
REMARK  174  A    between atoms: _426  and  _427
REMARK  175  A    between atoms: _426  and  _429
REMARK  176  A    between atoms: _429  and  _430
REMARK  177  A    between atoms: _433  and  _435
REMARK  178  A    between atoms: _435  and  _436
REMARK  179  A    between atoms: _439  and  _441
REMARK  180  A    between atoms: _441  and  _442
REMARK  181  A    between atoms: _441  and  _444
REMARK  182  A    between atoms: _444  and  _445
REMARK  183  A    between atoms: _445  and  _446
REMARK  184  A    between atoms: _448  and  _450
REMARK  185  A    between atoms: _450  and  _451
REMARK  186  A    between atoms: _450  and  _453
REMARK  187  A    between atoms: _453  and  _454
REMARK  188  A    between atoms: _459  and  _461
REMARK  189  A    between atoms: _461  and  _462
REMARK  190  A    between atoms: _461  and  _464
REMARK  191  A    between atoms: _464  and  _465
REMARK  192  A    between atoms: _475  and  _477
REMARK  193  A    between atoms: _477  and  _478
REMARK  194  A    between atoms: _477  and  _480
REMARK  195  A    between atoms: _483  and  _485
REMARK  196  A    between atoms: _485  and  _486
REMARK  197  A    between atoms: _485  and  _488
REMARK  198  A    between atoms: _488  and  _489
REMARK  199  A    between atoms: _489  and  _490
REMARK  200  A    between atoms: _490  and  _491
REMARK  201  A    between atoms: _491  and  _492
REMARK  202  A    between atoms: _496  and  _498
REMARK  203  A    between atoms: _498  and  _499
REMARK  204  A    between atoms: _498  and  _501
REMARK  205  A    between atoms: _501  and  _502
REMARK  206  A    between atoms: _502  and  _503
REMARK  207  A    between atoms: _506  and  _508
REMARK  208  A    between atoms: _508  and  _509
REMARK  209  A    between atoms: _508  and  _511
REMARK  210  A    between atoms: _511  and  _512
REMARK  211  A    between atoms: _515  and  _517
REMARK  212  A    between atoms: _517  and  _518
REMARK  213  A    between atoms: _517  and  _520
REMARK  214  A    between atoms: _520  and  _521
REMARK  215  A    between atoms: _521  and  _522
REMARK  216  A    between atoms: _522  and  _523
REMARK  217  A    between atoms: _532  and  _534
REMARK  218  A    between atoms: _534  and  _535
REMARK  219  A    between atoms: _534  and  _537
REMARK  220  A    between atoms: _537  and  _538
REMARK  221  A    between atoms: _543  and  _545
REMARK  222  A    between atoms: _545  and  _546
REMARK  223  A    between atoms: _545  and  _548
REMARK  224  A    between atoms: _548  and  _549
REMARK  225  A    between atoms: _552  and  _554
REMARK  226  A    between atoms: _554  and  _555
REMARK  227  A    between atoms: _554  and  _557
REMARK  228  A    between atoms: _557  and  _558
REMARK  229  A    between atoms: _563  and  _565
REMARK  230  A    between atoms: _565  and  _566
REMARK  231  A    between atoms: _565  and  _568
REMARK  232  A    between atoms: _568  and  _569
REMARK  233  A    between atoms: _569  and  _570
REMARK  234  A    between atoms: _570  and  _571
REMARK  235  A    between atoms: _580  and  _582
REMARK  236  A    between atoms: _582  and  _583
REMARK  237  A    between atoms: _582  and  _585
REMARK  238  A    between atoms: _585  and  _586
REMARK  239  A    between atoms: _586  and  _587
REMARK  240  A    between atoms: _589  and  _591
REMARK  241  A    between atoms: _591  and  _592
REMARK  242  A    between atoms: _591  and  _594
REMARK  243  A    between atoms: _594  and  _595
REMARK  244  A    between atoms: _595  and  _596
REMARK  245  A    between atoms: _598  and  _600
REMARK  246  A    between atoms: _600  and  _601
REMARK  247  A    between atoms: _600  and  _603
REMARK  248  A    between atoms: _603  and  _604
REMARK  249  A    between atoms: _604  and  _605
REMARK  250  A    between atoms: _605  and  _606
REMARK  251  A    between atoms: _606  and  _607
REMARK  252  A    between atoms: _611  and  _613
REMARK  253  A    between atoms: _613  and  _614
REMARK  254  A    between atoms: _613  and  _616
REMARK  255  A    between atoms: _616  and  _617
REMARK                            x       y       z     vdW  Elec       q    Type
REMARK                         _______ _______ _______ _____ _____    ______ ____
ROOT
ATOM      1  O   HOH     1      57.387  12.488  32.900  0.00  0.00    +0.000 OA
ENDROOT
TORSDOF 0
REMARK  Name = ../refined-set-2016/1x8t/1x8t_pocket.pdb
REMARK  255 active torsions:
REMARK  status: ('A' for Active; 'I' for Inactive)
REMARK    1  A    between atoms: _1  and  _3
REMARK    2  A    between atoms: _3  and  _4
REMARK    3  A    between atoms: _3  and  _6
REMARK    4  A    between atoms: _6  and  _7
REMARK    5  A    between atoms: _9  and  _11
REMARK    6  A    between atoms: _11  and  _12
REMARK    7  A    between atoms: _11  and  _14
REMARK    8  A    between atoms: _14  and  _15
REMARK    9  A    between atoms: _15  and  _16
REMARK   10  A    between atoms: _16  and  _17
REMARK   11  A    between atoms: _17  and  _18
REMARK   12  A    between atoms: _22  and  _24
REMARK   13  A    between atoms: _24  and  _25
REMARK   14  A    between atoms: _24  and  _27
REMARK   15  A    between atoms: _27  and  _28
REMARK   16  A    between atoms: _30  and  _32
REMARK   17  A    between atoms: _32  and  _33
REMARK   18  A    between atoms: _32  and  _35
REMARK   19  A    between atoms: _38  and  _40
REMARK   20  A    between atoms: _40  and  _41
REMARK   21  A    between atoms: _40  and  _43
REMARK   22  A    between atoms: _43  and  _44
REMARK   23  A    between atoms: _46  and  _48
REMARK   24  A    between atoms: _48  and  _49
REMARK   25  A    between atoms: _48  and  _51
REMARK   26  A    between atoms: _51  and  _52
REMARK   27  A    between atoms: _57  and  _59
REMARK   28  A    between atoms: _59  and  _60
REMARK   29  A    between atoms: _59  and  _62
REMARK   30  A    between atoms: _62  and  _63
REMARK   31  A    between atoms: _63  and  _64
REMARK   32  A    between atoms: _64  and  _65
REMARK   33  A    between atoms: _74  and  _76
REMARK   34  A    between atoms: _76  and  _77
REMARK   35  A    between atoms: _76  and  _79
REMARK   36  A    between atoms: _79  and  _80
REMARK   37  A    between atoms: _83  and  _85
REMARK   38  A    between atoms: _85  and  _86
REMARK   39  A    between atoms: _85  and  _88
REMARK   40  A    between atoms: _88  and  _89
REMARK   41  A    between atoms: _94  and  _96
REMARK   42  A    between atoms: _96  and  _97
REMARK   43  A    between atoms: _100  and  _102
REMARK   44  A    between atoms: _102  and  _103
REMARK   45  A    between atoms: _105  and  _107
REMARK   46  A    between atoms: _107  and  _108
REMARK   47  A    between atoms: _107  and  _110
REMARK   48  A    between atoms: _110  and  _111
REMARK   49  A    between atoms: _114  and  _116
REMARK   50  A    between atoms: _116  and  _117
REMARK   51  A    between atoms: _120  and  _122
REMARK   52  A    between atoms: _122  and  _123
REMARK   53  A    between atoms: _122  and  _125
REMARK   54  A    between atoms: _125  and  _126
REMARK   55  A    between atoms: _126  and  _127
REMARK   56  A    between atoms: _129  and  _131
REMARK   57  A    between atoms: _131  and  _132
REMARK   58  A    between atoms: _131  and  _134
REMARK   59  A    between atoms: _134  and  _135
REMARK   60  A    between atoms: _135  and  _136
REMARK   61  A    between atoms: _136  and  _137
REMARK   62  A    between atoms: _147  and  _148
REMARK   63  A    between atoms: _153  and  _155
REMARK   64  A    between atoms: _155  and  _156
REMARK   65  A    between atoms: _155  and  _158
REMARK   66  A    between atoms: _158  and  _159
REMARK   67  A    between atoms: _159  and  _160
REMARK   68  A    between atoms: _160  and  _161
REMARK   69  A    between atoms: _171  and  _172
REMARK   70  A    between atoms: _177  and  _179
REMARK   71  A    between atoms: _179  and  _180
REMARK   72  A    between atoms: _182  and  _184
REMARK   73  A    between atoms: _184  and  _185
REMARK   74  A    between atoms: _184  and  _187
REMARK   75  A    between atoms: _187  and  _188
REMARK   76  A    between atoms: _190  and  _192
REMARK   77  A    between atoms: _192  and  _193
REMARK   78  A    between atoms: _192  and  _195
REMARK   79  A    between atoms: _198  and  _200
REMARK   80  A    between atoms: _200  and  _201
REMARK   81  A    between atoms: _200  and  _203
REMARK   82  A    between atoms: _203  and  _204
REMARK   83  A    between atoms: _206  and  _208
REMARK   84  A    between atoms: _208  and  _209
REMARK   85  A    between atoms: _208  and  _211
REMARK   86  A    between atoms: _211  and  _212
REMARK   87  A    between atoms: _214  and  _216
REMARK   88  A    between atoms: _216  and  _217
REMARK   89  A    between atoms: _216  and  _219
REMARK   90  A    between atoms: _219  and  _220
REMARK   91  A    between atoms: _220  and  _221
REMARK   92  A    between atoms: _226  and  _228
REMARK   93  A    between atoms: _228  and  _229
REMARK   94  A    between atoms: _228  and  _231
REMARK   95  A    between atoms: _231  and  _232
REMARK   96  A    between atoms: _238  and  _240
REMARK   97  A    between atoms: _240  and  _241
REMARK   98  A    between atoms: _240  and  _243
REMARK   99  A    between atoms: _243  and  _244
REMARK  100  A    between atoms: _247  and  _249
REMARK  101  A    between atoms: _249  and  _250
REMARK  102  A    between atoms: _249  and  _252
REMARK  103  A    between atoms: _252  and  _253
REMARK  104  A    between atoms: _256  and  _258
REMARK  105  A    between atoms: _258  and  _259
REMARK  106  A    between atoms: _262  and  _264
REMARK  107  A    between atoms: _264  and  _265
REMARK  108  A    between atoms: _264  and  _267
REMARK  109  A    between atoms: _267  and  _268
REMARK  110  A    between atoms: _268  and  _269
REMARK  111  A    between atoms: _271  and  _273
REMARK  112  A    between atoms: _273  and  _274
REMARK  113  A    between atoms: _273  and  _276
REMARK  114  A    between atoms: _276  and  _277
REMARK  115  A    between atoms: _280  and  _282
REMARK  116  A    between atoms: _282  and  _283
REMARK  117  A    between atoms: _282  and  _285
REMARK  118  A    between atoms: _288  and  _290
REMARK  119  A    between atoms: _290  and  _291
REMARK  120  A    between atoms: _290  and  _293
REMARK  121  A    between atoms: _293  and  _294
REMARK  122  A    between atoms: _296  and  _298
REMARK  123  A    between atoms: _298  and  _299
REMARK  124  A    between atoms: _298  and  _301
REMARK  125  A    between atoms: _301  and  _302
REMARK  126  A    between atoms: _302  and  _303
REMARK  127  A    between atoms: _303  and  _304
REMARK  128  A    between atoms: _304  and  _305
REMARK  129  A    between atoms: _310  and  _311
REMARK  130  A    between atoms: _316  and  _318
REMARK  131  A    between atoms: _318  and  _319
REMARK  132  A    between atoms: _318  and  _321
REMARK  133  A    between atoms: _321  and  _322
REMARK  134  A    between atoms: _327  and  _328
REMARK  135  A    between atoms: _330  and  _332
REMARK  136  A    between atoms: _332  and  _333
REMARK  137  A    between atoms: _332  and  _335
REMARK  138  A    between atoms: _335  and  _336
REMARK  139  A    between atoms: _339  and  _341
REMARK  140  A    between atoms: _341  and  _342
REMARK  141  A    between atoms: _341  and  _344
REMARK  142  A    between atoms: _344  and  _345
REMARK  143  A    between atoms: _348  and  _350
REMARK  144  A    between atoms: _350  and  _351
REMARK  145  A    between atoms: _350  and  _353
REMARK  146  A    between atoms: _353  and  _354
REMARK  147  A    between atoms: _357  and  _359
REMARK  148  A    between atoms: _359  and  _360
REMARK  149  A    between atoms: _359  and  _362
REMARK  150  A    between atoms: _362  and  _363
REMARK  151  A    between atoms: _366  and  _368
REMARK  152  A    between atoms: _368  and  _369
REMARK  153  A    between atoms: _368  and  _371
REMARK  154  A    between atoms: _371  and  _372
REMARK  155  A    between atoms: _374  and  _376
REMARK  156  A    between atoms: _376  and  _377
REMARK  157  A    between atoms: _376  and  _379
REMARK  158  A    between atoms: _379  and  _380
REMARK  159  A    between atoms: _385  and  _386
REMARK  160  A    between atoms: _388  and  _390
REMARK  161  A    between atoms: _390  and  _391
REMARK  162  A    between atoms: _390  and  _393
REMARK  163  A    between atoms: _393  and  _394
REMARK  164  A    between atoms: _397  and  _399
REMARK  165  A    between atoms: _399  and  _400
REMARK  166  A    between atoms: _399  and  _402
REMARK  167  A    between atoms: _402  and  _403
REMARK  168  A    between atoms: _408  and  _410
REMARK  169  A    between atoms: _410  and  _411
REMARK  170  A    between atoms: _410  and  _413
REMARK  171  A    between atoms: _413  and  _414
REMARK  172  A    between atoms: _418  and  _419
REMARK  173  A    between atoms: _424  and  _426
REMARK  174  A    between atoms: _426  and  _427
REMARK  175  A    between atoms: _426  and  _429
REMARK  176  A    between atoms: _429  and  _430
REMARK  177  A    between atoms: _433  and  _435
REMARK  178  A    between atoms: _435  and  _436
REMARK  179  A    between atoms: _439  and  _441
REMARK  180  A    between atoms: _441  and  _442
REMARK  181  A    between atoms: _441  and  _444
REMARK  182  A    between atoms: _444  and  _445
REMARK  183  A    between atoms: _445  and  _446
REMARK  184  A    between atoms: _448  and  _450
REMARK  185  A    between atoms: _450  and  _451
REMARK  186  A    between atoms: _450  and  _453
REMARK  187  A    between atoms: _453  and  _454
REMARK  188  A    between atoms: _459  and  _461
REMARK  189  A    between atoms: _461  and  _462
REMARK  190  A    between atoms: _461  and  _464
REMARK  191  A    between atoms: _464  and  _465
REMARK  192  A    between atoms: _475  and  _477
REMARK  193  A    between atoms: _477  and  _478
REMARK  194  A    between atoms: _477  and  _480
REMARK  195  A    between atoms: _483  and  _485
REMARK  196  A    between atoms: _485  and  _486
REMARK  197  A    between atoms: _485  and  _488
REMARK  198  A    between atoms: _488  and  _489
REMARK  199  A    between atoms: _489  and  _490
REMARK  200  A    between atoms: _490  and  _491
REMARK  201  A    between atoms: _491  and  _492
REMARK  202  A    between atoms: _496  and  _498
REMARK  203  A    between atoms: _498  and  _499
REMARK  204  A    between atoms: _498  and  _501
REMARK  205  A    between atoms: _501  and  _502
REMARK  206  A    between atoms: _502  and  _503
REMARK  207  A    between atoms: _506  and  _508
REMARK  208  A    between atoms: _508  and  _509
REMARK  209  A    between atoms: _508  and  _511
REMARK  210  A    between atoms: _511  and  _512
REMARK  211  A    between atoms: _515  and  _517
REMARK  212  A    between atoms: _517  and  _518
REMARK  213  A    between atoms: _517  and  _520
REMARK  214  A    between atoms: _520  and  _521
REMARK  215  A    between atoms: _521  and  _522
REMARK  216  A    between atoms: _522  and  _523
REMARK  217  A    between atoms: _532  and  _534
REMARK  218  A    between atoms: _534  and  _535
REMARK  219  A    between atoms: _534  and  _537
REMARK  220  A    between atoms: _537  and  _538
REMARK  221  A    between atoms: _543  and  _545
REMARK  222  A    between atoms: _545  and  _546
REMARK  223  A    between atoms: _545  and  _548
REMARK  224  A    between atoms: _548  and  _549
REMARK  225  A    between atoms: _552  and  _554
REMARK  226  A    between atoms: _554  and  _555
REMARK  227  A    between atoms: _554  and  _557
REMARK  228  A    between atoms: _557  and  _558
REMARK  229  A    between atoms: _563  and  _565
REMARK  230  A    between atoms: _565  and  _566
REMARK  231  A    between atoms: _565  and  _568
REMARK  232  A    between atoms: _568  and  _569
REMARK  233  A    between atoms: _569  and  _570
REMARK  234  A    between atoms: _570  and  _571
REMARK  235  A    between atoms: _580  and  _582
REMARK  236  A    between atoms: _582  and  _583
REMARK  237  A    between atoms: _582  and  _585
REMARK  238  A    between atoms: _585  and  _586
REMARK  239  A    between atoms: _586  and  _587
REMARK  240  A    between atoms: _589  and  _591
REMARK  241  A    between atoms: _591  and  _592
REMARK  242  A    between atoms: _591  and  _594
REMARK  243  A    between atoms: _594  and  _595
REMARK  244  A    between atoms: _595  and  _596
REMARK  245  A    between atoms: _598  and  _600
REMARK  246  A    between atoms: _600  and  _601
REMARK  247  A    between atoms: _600  and  _603
REMARK  248  A    between atoms: _603  and  _604
REMARK  249  A    between atoms: _604  and  _605
REMARK  250  A    between atoms: _605  and  _606
REMARK  251  A    between atoms: _606  and  _607
REMARK  252  A    between atoms: _611  and  _613
REMARK  253  A    between atoms: _613  and  _614
REMARK  254  A    between atoms: _613  and  _616
REMARK  255  A    between atoms: _616  and  _617
REMARK                            x       y       z     vdW  Elec       q    Type
REMARK                         _______ _______ _______ _____ _____    ______ ____
ROOT
ATOM      1  O   HOH     1      61.271  13.998  32.810  0.00  0.00    +0.000 OA
ENDROOT
TORSDOF 0
REMARK  Name = ../refined-set-2016/1x8t/1x8t_pocket.pdb
REMARK  255 active torsions:
REMARK  status: ('A' for Active; 'I' for Inactive)
REMARK    1  A    between atoms: _1  and  _3
REMARK    2  A    between atoms: _3  and  _4
REMARK    3  A    between atoms: _3  and  _6
REMARK    4  A    between atoms: _6  and  _7
REMARK    5  A    between atoms: _9  and  _11
REMARK    6  A    between atoms: _11  and  _12
REMARK    7  A    between atoms: _11  and  _14
REMARK    8  A    between atoms: _14  and  _15
REMARK    9  A    between atoms: _15  and  _16
REMARK   10  A    between atoms: _16  and  _17
REMARK   11  A    between atoms: _17  and  _18
REMARK   12  A    between atoms: _22  and  _24
REMARK   13  A    between atoms: _24  and  _25
REMARK   14  A    between atoms: _24  and  _27
REMARK   15  A    between atoms: _27  and  _28
REMARK   16  A    between atoms: _30  and  _32
REMARK   17  A    between atoms: _32  and  _33
REMARK   18  A    between atoms: _32  and  _35
REMARK   19  A    between atoms: _38  and  _40
REMARK   20  A    between atoms: _40  and  _41
REMARK   21  A    between atoms: _40  and  _43
REMARK   22  A    between atoms: _43  and  _44
REMARK   23  A    between atoms: _46  and  _48
REMARK   24  A    between atoms: _48  and  _49
REMARK   25  A    between atoms: _48  and  _51
REMARK   26  A    between atoms: _51  and  _52
REMARK   27  A    between atoms: _57  and  _59
REMARK   28  A    between atoms: _59  and  _60
REMARK   29  A    between atoms: _59  and  _62
REMARK   30  A    between atoms: _62  and  _63
REMARK   31  A    between atoms: _63  and  _64
REMARK   32  A    between atoms: _64  and  _65
REMARK   33  A    between atoms: _74  and  _76
REMARK   34  A    between atoms: _76  and  _77
REMARK   35  A    between atoms: _76  and  _79
REMARK   36  A    between atoms: _79  and  _80
REMARK   37  A    between atoms: _83  and  _85
REMARK   38  A    between atoms: _85  and  _86
REMARK   39  A    between atoms: _85  and  _88
REMARK   40  A    between atoms: _88  and  _89
REMARK   41  A    between atoms: _94  and  _96
REMARK   42  A    between atoms: _96  and  _97
REMARK   43  A    between atoms: _100  and  _102
REMARK   44  A    between atoms: _102  and  _103
REMARK   45  A    between atoms: _105  and  _107
REMARK   46  A    between atoms: _107  and  _108
REMARK   47  A    between atoms: _107  and  _110
REMARK   48  A    between atoms: _110  and  _111
REMARK   49  A    between atoms: _114  and  _116
REMARK   50  A    between atoms: _116  and  _117
REMARK   51  A    between atoms: _120  and  _122
REMARK   52  A    between atoms: _122  and  _123
REMARK   53  A    between atoms: _122  and  _125
REMARK   54  A    between atoms: _125  and  _126
REMARK   55  A    between atoms: _126  and  _127
REMARK   56  A    between atoms: _129  and  _131
REMARK   57  A    between atoms: _131  and  _132
REMARK   58  A    between atoms: _131  and  _134
REMARK   59  A    between atoms: _134  and  _135
REMARK   60  A    between atoms: _135  and  _136
REMARK   61  A    between atoms: _136  and  _137
REMARK   62  A    between atoms: _147  and  _148
REMARK   63  A    between atoms: _153  and  _155
REMARK   64  A    between atoms: _155  and  _156
REMARK   65  A    between atoms: _155  and  _158
REMARK   66  A    between atoms: _158  and  _159
REMARK   67  A    between atoms: _159  and  _160
REMARK   68  A    between atoms: _160  and  _161
REMARK   69  A    between atoms: _171  and  _172
REMARK   70  A    between atoms: _177  and  _179
REMARK   71  A    between atoms: _179  and  _180
REMARK   72  A    between atoms: _182  and  _184
REMARK   73  A    between atoms: _184  and  _185
REMARK   74  A    between atoms: _184  and  _187
REMARK   75  A    between atoms: _187  and  _188
REMARK   76  A    between atoms: _190  and  _192
REMARK   77  A    between atoms: _192  and  _193
REMARK   78  A    between atoms: _192  and  _195
REMARK   79  A    between atoms: _198  and  _200
REMARK   80  A    between atoms: _200  and  _201
REMARK   81  A    between atoms: _200  and  _203
REMARK   82  A    between atoms: _203  and  _204
REMARK   83  A    between atoms: _206  and  _208
REMARK   84  A    between atoms: _208  and  _209
REMARK   85  A    between atoms: _208  and  _211
REMARK   86  A    between atoms: _211  and  _212
REMARK   87  A    between atoms: _214  and  _216
REMARK   88  A    between atoms: _216  and  _217
REMARK   89  A    between atoms: _216  and  _219
REMARK   90  A    between atoms: _219  and  _220
REMARK   91  A    between atoms: _220  and  _221
REMARK   92  A    between atoms: _226  and  _228
REMARK   93  A    between atoms: _228  and  _229
REMARK   94  A    between atoms: _228  and  _231
REMARK   95  A    between atoms: _231  and  _232
REMARK   96  A    between atoms: _238  and  _240
REMARK   97  A    between atoms: _240  and  _241
REMARK   98  A    between atoms: _240  and  _243
REMARK   99  A    between atoms: _243  and  _244
REMARK  100  A    between atoms: _247  and  _249
REMARK  101  A    between atoms: _249  and  _250
REMARK  102  A    between atoms: _249  and  _252
REMARK  103  A    between atoms: _252  and  _253
REMARK  104  A    between atoms: _256  and  _258
REMARK  105  A    between atoms: _258  and  _259
REMARK  106  A    between atoms: _262  and  _264
REMARK  107  A    between atoms: _264  and  _265
REMARK  108  A    between atoms: _264  and  _267
REMARK  109  A    between atoms: _267  and  _268
REMARK  110  A    between atoms: _268  and  _269
REMARK  111  A    between atoms: _271  and  _273
REMARK  112  A    between atoms: _273  and  _274
REMARK  113  A    between atoms: _273  and  _276
REMARK  114  A    between atoms: _276  and  _277
REMARK  115  A    between atoms: _280  and  _282
REMARK  116  A    between atoms: _282  and  _283
REMARK  117  A    between atoms: _282  and  _285
REMARK  118  A    between atoms: _288  and  _290
REMARK  119  A    between atoms: _290  and  _291
REMARK  120  A    between atoms: _290  and  _293
REMARK  121  A    between atoms: _293  and  _294
REMARK  122  A    between atoms: _296  and  _298
REMARK  123  A    between atoms: _298  and  _299
REMARK  124  A    between atoms: _298  and  _301
REMARK  125  A    between atoms: _301  and  _302
REMARK  126  A    between atoms: _302  and  _303
REMARK  127  A    between atoms: _303  and  _304
REMARK  128  A    between atoms: _304  and  _305
REMARK  129  A    between atoms: _310  and  _311
REMARK  130  A    between atoms: _316  and  _318
REMARK  131  A    between atoms: _318  and  _319
REMARK  132  A    between atoms: _318  and  _321
REMARK  133  A    between atoms: _321  and  _322
REMARK  134  A    between atoms: _327  and  _328
REMARK  135  A    between atoms: _330  and  _332
REMARK  136  A    between atoms: _332  and  _333
REMARK  137  A    between atoms: _332  and  _335
REMARK  138  A    between atoms: _335  and  _336
REMARK  139  A    between atoms: _339  and  _341
REMARK  140  A    between atoms: _341  and  _342
REMARK  141  A    between atoms: _341  and  _344
REMARK  142  A    between atoms: _344  and  _345
REMARK  143  A    between atoms: _348  and  _350
REMARK  144  A    between atoms: _350  and  _351
REMARK  145  A    between atoms: _350  and  _353
REMARK  146  A    between atoms: _353  and  _354
REMARK  147  A    between atoms: _357  and  _359
REMARK  148  A    between atoms: _359  and  _360
REMARK  149  A    between atoms: _359  and  _362
REMARK  150  A    between atoms: _362  and  _363
REMARK  151  A    between atoms: _366  and  _368
REMARK  152  A    between atoms: _368  and  _369
REMARK  153  A    between atoms: _368  and  _371
REMARK  154  A    between atoms: _371  and  _372
REMARK  155  A    between atoms: _374  and  _376
REMARK  156  A    between atoms: _376  and  _377
REMARK  157  A    between atoms: _376  and  _379
REMARK  158  A    between atoms: _379  and  _380
REMARK  159  A    between atoms: _385  and  _386
REMARK  160  A    between atoms: _388  and  _390
REMARK  161  A    between atoms: _390  and  _391
REMARK  162  A    between atoms: _390  and  _393
REMARK  163  A    between atoms: _393  and  _394
REMARK  164  A    between atoms: _397  and  _399
REMARK  165  A    between atoms: _399  and  _400
REMARK  166  A    between atoms: _399  and  _402
REMARK  167  A    between atoms: _402  and  _403
REMARK  168  A    between atoms: _408  and  _410
REMARK  169  A    between atoms: _410  and  _411
REMARK  170  A    between atoms: _410  and  _413
REMARK  171  A    between atoms: _413  and  _414
REMARK  172  A    between atoms: _418  and  _419
REMARK  173  A    between atoms: _424  and  _426
REMARK  174  A    between atoms: _426  and  _427
REMARK  175  A    between atoms: _426  and  _429
REMARK  176  A    between atoms: _429  and  _430
REMARK  177  A    between atoms: _433  and  _435
REMARK  178  A    between atoms: _435  and  _436
REMARK  179  A    between atoms: _439  and  _441
REMARK  180  A    between atoms: _441  and  _442
REMARK  181  A    between atoms: _441  and  _444
REMARK  182  A    between atoms: _444  and  _445
REMARK  183  A    between atoms: _445  and  _446
REMARK  184  A    between atoms: _448  and  _450
REMARK  185  A    between atoms: _450  and  _451
REMARK  186  A    between atoms: _450  and  _453
REMARK  187  A    between atoms: _453  and  _454
REMARK  188  A    between atoms: _459  and  _461
REMARK  189  A    between atoms: _461  and  _462
REMARK  190  A    between atoms: _461  and  _464
REMARK  191  A    between atoms: _464  and  _465
REMARK  192  A    between atoms: _475  and  _477
REMARK  193  A    between atoms: _477  and  _478
REMARK  194  A    between atoms: _477  and  _480
REMARK  195  A    between atoms: _483  and  _485
REMARK  196  A    between atoms: _485  and  _486
REMARK  197  A    between atoms: _485  and  _488
REMARK  198  A    between atoms: _488  and  _489
REMARK  199  A    between atoms: _489  and  _490
REMARK  200  A    between atoms: _490  and  _491
REMARK  201  A    between atoms: _491  and  _492
REMARK  202  A    between atoms: _496  and  _498
REMARK  203  A    between atoms: _498  and  _499
REMARK  204  A    between atoms: _498  and  _501
REMARK  205  A    between atoms: _501  and  _502
REMARK  206  A    between atoms: _502  and  _503
REMARK  207  A    between atoms: _506  and  _508
REMARK  208  A    between atoms: _508  and  _509
REMARK  209  A    between atoms: _508  and  _511
REMARK  210  A    between atoms: _511  and  _512
REMARK  211  A    between atoms: _515  and  _517
REMARK  212  A    between atoms: _517  and  _518
REMARK  213  A    between atoms: _517  and  _520
REMARK  214  A    between atoms: _520  and  _521
REMARK  215  A    between atoms: _521  and  _522
REMARK  216  A    between atoms: _522  and  _523
REMARK  217  A    between atoms: _532  and  _534
REMARK  218  A    between atoms: _534  and  _535
REMARK  219  A    between atoms: _534  and  _537
REMARK  220  A    between atoms: _537  and  _538
REMARK  221  A    between atoms: _543  and  _545
REMARK  222  A    between atoms: _545  and  _546
REMARK  223  A    between atoms: _545  and  _548
REMARK  224  A    between atoms: _548  and  _549
REMARK  225  A    between atoms: _552  and  _554
REMARK  226  A    between atoms: _554  and  _555
REMARK  227  A    between atoms: _554  and  _557
REMARK  228  A    between atoms: _557  and  _558
REMARK  229  A    between atoms: _563  and  _565
REMARK  230  A    between atoms: _565  and  _566
REMARK  231  A    between atoms: _565  and  _568
REMARK  232  A    between atoms: _568  and  _569
REMARK  233  A    between atoms: _569  and  _570
REMARK  234  A    between atoms: _570  and  _571
REMARK  235  A    between atoms: _580  and  _582
REMARK  236  A    between atoms: _582  and  _583
REMARK  237  A    between atoms: _582  and  _585
REMARK  238  A    between atoms: _585  and  _586
REMARK  239  A    between atoms: _586  and  _587
REMARK  240  A    between atoms: _589  and  _591
REMARK  241  A    between atoms: _591  and  _592
REMARK  242  A    between atoms: _591  and  _594
REMARK  243  A    between atoms: _594  and  _595
REMARK  244  A    between atoms: _595  and  _596
REMARK  245  A    between atoms: _598  and  _600
REMARK  246  A    between atoms: _600  and  _601
REMARK  247  A    between atoms: _600  and  _603
REMARK  248  A    between atoms: _603  and  _604
REMARK  249  A    between atoms: _604  and  _605
REMARK  250  A    between atoms: _605  and  _606
REMARK  251  A    between atoms: _606  and  _607
REMARK  252  A    between atoms: _611  and  _613
REMARK  253  A    between atoms: _613  and  _614
REMARK  254  A    between atoms: _613  and  _616
REMARK  255  A    between atoms: _616  and  _617
REMARK                            x       y       z     vdW  Elec       q    Type
REMARK                         _______ _______ _______ _____ _____    ______ ____
ROOT
ATOM      1  O   HOH     1      56.937  15.926  33.738  0.00  0.00    +0.000 OA
ENDROOT
TORSDOF 0
REMARK  Name = ../refined-set-2016/1x8t/1x8t_pocket.pdb
REMARK  255 active torsions:
REMARK  status: ('A' for Active; 'I' for Inactive)
REMARK    1  A    between atoms: _1  and  _3
REMARK    2  A    between atoms: _3  and  _4
REMARK    3  A    between atoms: _3  and  _6
REMARK    4  A    between atoms: _6  and  _7
REMARK    5  A    between atoms: _9  and  _11
REMARK    6  A    between atoms: _11  and  _12
REMARK    7  A    between atoms: _11  and  _14
REMARK    8  A    between atoms: _14  and  _15
REMARK    9  A    between atoms: _15  and  _16
REMARK   10  A    between atoms: _16  and  _17
REMARK   11  A    between atoms: _17  and  _18
REMARK   12  A    between atoms: _22  and  _24
REMARK   13  A    between atoms: _24  and  _25
REMARK   14  A    between atoms: _24  and  _27
REMARK   15  A    between atoms: _27  and  _28
REMARK   16  A    between atoms: _30  and  _32
REMARK   17  A    between atoms: _32  and  _33
REMARK   18  A    between atoms: _32  and  _35
REMARK   19  A    between atoms: _38  and  _40
REMARK   20  A    between atoms: _40  and  _41
REMARK   21  A    between atoms: _40  and  _43
REMARK   22  A    between atoms: _43  and  _44
REMARK   23  A    between atoms: _46  and  _48
REMARK   24  A    between atoms: _48  and  _49
REMARK   25  A    between atoms: _48  and  _51
REMARK   26  A    between atoms: _51  and  _52
REMARK   27  A    between atoms: _57  and  _59
REMARK   28  A    between atoms: _59  and  _60
REMARK   29  A    between atoms: _59  and  _62
REMARK   30  A    between atoms: _62  and  _63
REMARK   31  A    between atoms: _63  and  _64
REMARK   32  A    between atoms: _64  and  _65
REMARK   33  A    between atoms: _74  and  _76
REMARK   34  A    between atoms: _76  and  _77
REMARK   35  A    between atoms: _76  and  _79
REMARK   36  A    between atoms: _79  and  _80
REMARK   37  A    between atoms: _83  and  _85
REMARK   38  A    between atoms: _85  and  _86
REMARK   39  A    between atoms: _85  and  _88
REMARK   40  A    between atoms: _88  and  _89
REMARK   41  A    between atoms: _94  and  _96
REMARK   42  A    between atoms: _96  and  _97
REMARK   43  A    between atoms: _100  and  _102
REMARK   44  A    between atoms: _102  and  _103
REMARK   45  A    between atoms: _105  and  _107
REMARK   46  A    between atoms: _107  and  _108
REMARK   47  A    between atoms: _107  and  _110
REMARK   48  A    between atoms: _110  and  _111
REMARK   49  A    between atoms: _114  and  _116
REMARK   50  A    between atoms: _116  and  _117
REMARK   51  A    between atoms: _120  and  _122
REMARK   52  A    between atoms: _122  and  _123
REMARK   53  A    between atoms: _122  and  _125
REMARK   54  A    between atoms: _125  and  _126
REMARK   55  A    between atoms: _126  and  _127
REMARK   56  A    between atoms: _129  and  _131
REMARK   57  A    between atoms: _131  and  _132
REMARK   58  A    between atoms: _131  and  _134
REMARK   59  A    between atoms: _134  and  _135
REMARK   60  A    between atoms: _135  and  _136
REMARK   61  A    between atoms: _136  and  _137
REMARK   62  A    between atoms: _147  and  _148
REMARK   63  A    between atoms: _153  and  _155
REMARK   64  A    between atoms: _155  and  _156
REMARK   65  A    between atoms: _155  and  _158
REMARK   66  A    between atoms: _158  and  _159
REMARK   67  A    between atoms: _159  and  _160
REMARK   68  A    between atoms: _160  and  _161
REMARK   69  A    between atoms: _171  and  _172
REMARK   70  A    between atoms: _177  and  _179
REMARK   71  A    between atoms: _179  and  _180
REMARK   72  A    between atoms: _182  and  _184
REMARK   73  A    between atoms: _184  and  _185
REMARK   74  A    between atoms: _184  and  _187
REMARK   75  A    between atoms: _187  and  _188
REMARK   76  A    between atoms: _190  and  _192
REMARK   77  A    between atoms: _192  and  _193
REMARK   78  A    between atoms: _192  and  _195
REMARK   79  A    between atoms: _198  and  _200
REMARK   80  A    between atoms: _200  and  _201
REMARK   81  A    between atoms: _200  and  _203
REMARK   82  A    between atoms: _203  and  _204
REMARK   83  A    between atoms: _206  and  _208
REMARK   84  A    between atoms: _208  and  _209
REMARK   85  A    between atoms: _208  and  _211
REMARK   86  A    between atoms: _211  and  _212
REMARK   87  A    between atoms: _214  and  _216
REMARK   88  A    between atoms: _216  and  _217
REMARK   89  A    between atoms: _216  and  _219
REMARK   90  A    between atoms: _219  and  _220
REMARK   91  A    between atoms: _220  and  _221
REMARK   92  A    between atoms: _226  and  _228
REMARK   93  A    between atoms: _228  and  _229
REMARK   94  A    between atoms: _228  and  _231
REMARK   95  A    between atoms: _231  and  _232
REMARK   96  A    between atoms: _238  and  _240
REMARK   97  A    between atoms: _240  and  _241
REMARK   98  A    between atoms: _240  and  _243
REMARK   99  A    between atoms: _243  and  _244
REMARK  100  A    between atoms: _247  and  _249
REMARK  101  A    between atoms: _249  and  _250
REMARK  102  A    between atoms: _249  and  _252
REMARK  103  A    between atoms: _252  and  _253
REMARK  104  A    between atoms: _256  and  _258
REMARK  105  A    between atoms: _258  and  _259
REMARK  106  A    between atoms: _262  and  _264
REMARK  107  A    between atoms: _264  and  _265
REMARK  108  A    between atoms: _264  and  _267
REMARK  109  A    between atoms: _267  and  _268
REMARK  110  A    between atoms: _268  and  _269
REMARK  111  A    between atoms: _271  and  _273
REMARK  112  A    between atoms: _273  and  _274
REMARK  113  A    between atoms: _273  and  _276
REMARK  114  A    between atoms: _276  and  _277
REMARK  115  A    between atoms: _280  and  _282
REMARK  116  A    between atoms: _282  and  _283
REMARK  117  A    between atoms: _282  and  _285
REMARK  118  A    between atoms: _288  and  _290
REMARK  119  A    between atoms: _290  and  _291
REMARK  120  A    between atoms: _290  and  _293
REMARK  121  A    between atoms: _293  and  _294
REMARK  122  A    between atoms: _296  and  _298
REMARK  123  A    between atoms: _298  and  _299
REMARK  124  A    between atoms: _298  and  _301
REMARK  125  A    between atoms: _301  and  _302
REMARK  126  A    between atoms: _302  and  _303
REMARK  127  A    between atoms: _303  and  _304
REMARK  128  A    between atoms: _304  and  _305
REMARK  129  A    between atoms: _310  and  _311
REMARK  130  A    between atoms: _316  and  _318
REMARK  131  A    between atoms: _318  and  _319
REMARK  132  A    between atoms: _318  and  _321
REMARK  133  A    between atoms: _321  and  _322
REMARK  134  A    between atoms: _327  and  _328
REMARK  135  A    between atoms: _330  and  _332
REMARK  136  A    between atoms: _332  and  _333
REMARK  137  A    between atoms: _332  and  _335
REMARK  138  A    between atoms: _335  and  _336
REMARK  139  A    between atoms: _339  and  _341
REMARK  140  A    between atoms: _341  and  _342
REMARK  141  A    between atoms: _341  and  _344
REMARK  142  A    between atoms: _344  and  _345
REMARK  143  A    between atoms: _348  and  _350
REMARK  144  A    between atoms: _350  and  _351
REMARK  145  A    between atoms: _350  and  _353
REMARK  146  A    between atoms: _353  and  _354
REMARK  147  A    between atoms: _357  and  _359
REMARK  148  A    between atoms: _359  and  _360
REMARK  149  A    between atoms: _359  and  _362
REMARK  150  A    between atoms: _362  and  _363
REMARK  151  A    between atoms: _366  and  _368
REMARK  152  A    between atoms: _368  and  _369
REMARK  153  A    between atoms: _368  and  _371
REMARK  154  A    between atoms: _371  and  _372
REMARK  155  A    between atoms: _374  and  _376
REMARK  156  A    between atoms: _376  and  _377
REMARK  157  A    between atoms: _376  and  _379
REMARK  158  A    between atoms: _379  and  _380
REMARK  159  A    between atoms: _385  and  _386
REMARK  160  A    between atoms: _388  and  _390
REMARK  161  A    between atoms: _390  and  _391
REMARK  162  A    between atoms: _390  and  _393
REMARK  163  A    between atoms: _393  and  _394
REMARK  164  A    between atoms: _397  and  _399
REMARK  165  A    between atoms: _399  and  _400
REMARK  166  A    between atoms: _399  and  _402
REMARK  167  A    between atoms: _402  and  _403
REMARK  168  A    between atoms: _408  and  _410
REMARK  169  A    between atoms: _410  and  _411
REMARK  170  A    between atoms: _410  and  _413
REMARK  171  A    between atoms: _413  and  _414
REMARK  172  A    between atoms: _418  and  _419
REMARK  173  A    between atoms: _424  and  _426
REMARK  174  A    between atoms: _426  and  _427
REMARK  175  A    between atoms: _426  and  _429
REMARK  176  A    between atoms: _429  and  _430
REMARK  177  A    between atoms: _433  and  _435
REMARK  178  A    between atoms: _435  and  _436
REMARK  179  A    between atoms: _439  and  _441
REMARK  180  A    between atoms: _441  and  _442
REMARK  181  A    between atoms: _441  and  _444
REMARK  182  A    between atoms: _444  and  _445
REMARK  183  A    between atoms: _445  and  _446
REMARK  184  A    between atoms: _448  and  _450
REMARK  185  A    between atoms: _450  and  _451
REMARK  186  A    between atoms: _450  and  _453
REMARK  187  A    between atoms: _453  and  _454
REMARK  188  A    between atoms: _459  and  _461
REMARK  189  A    between atoms: _461  and  _462
REMARK  190  A    between atoms: _461  and  _464
REMARK  191  A    between atoms: _464  and  _465
REMARK  192  A    between atoms: _475  and  _477
REMARK  193  A    between atoms: _477  and  _478
REMARK  194  A    between atoms: _477  and  _480
REMARK  195  A    between atoms: _483  and  _485
REMARK  196  A    between atoms: _485  and  _486
REMARK  197  A    between atoms: _485  and  _488
REMARK  198  A    between atoms: _488  and  _489
REMARK  199  A    between atoms: _489  and  _490
REMARK  200  A    between atoms: _490  and  _491
REMARK  201  A    between atoms: _491  and  _492
REMARK  202  A    between atoms: _496  and  _498
REMARK  203  A    between atoms: _498  and  _499
REMARK  204  A    between atoms: _498  and  _501
REMARK  205  A    between atoms: _501  and  _502
REMARK  206  A    between atoms: _502  and  _503
REMARK  207  A    between atoms: _506  and  _508
REMARK  208  A    between atoms: _508  and  _509
REMARK  209  A    between atoms: _508  and  _511
REMARK  210  A    between atoms: _511  and  _512
REMARK  211  A    between atoms: _515  and  _517
REMARK  212  A    between atoms: _517  and  _518
REMARK  213  A    between atoms: _517  and  _520
REMARK  214  A    between atoms: _520  and  _521
REMARK  215  A    between atoms: _521  and  _522
REMARK  216  A    between atoms: _522  and  _523
REMARK  217  A    between atoms: _532  and  _534
REMARK  218  A    between atoms: _534  and  _535
REMARK  219  A    between atoms: _534  and  _537
REMARK  220  A    between atoms: _537  and  _538
REMARK  221  A    between atoms: _543  and  _545
REMARK  222  A    between atoms: _545  and  _546
REMARK  223  A    between atoms: _545  and  _548
REMARK  224  A    between atoms: _548  and  _549
REMARK  225  A    between atoms: _552  and  _554
REMARK  226  A    between atoms: _554  and  _555
REMARK  227  A    between atoms: _554  and  _557
REMARK  228  A    between atoms: _557  and  _558
REMARK  229  A    between atoms: _563  and  _565
REMARK  230  A    between atoms: _565  and  _566
REMARK  231  A    between atoms: _565  and  _568
REMARK  232  A    between atoms: _568  and  _569
REMARK  233  A    between atoms: _569  and  _570
REMARK  234  A    between atoms: _570  and  _571
REMARK  235  A    between atoms: _580  and  _582
REMARK  236  A    between atoms: _582  and  _583
REMARK  237  A    between atoms: _582  and  _585
REMARK  238  A    between atoms: _585  and  _586
REMARK  239  A    between atoms: _586  and  _587
REMARK  240  A    between atoms: _589  and  _591
REMARK  241  A    between atoms: _591  and  _592
REMARK  242  A    between atoms: _591  and  _594
REMARK  243  A    between atoms: _594  and  _595
REMARK  244  A    between atoms: _595  and  _596
REMARK  245  A    between atoms: _598  and  _600
REMARK  246  A    between atoms: _600  and  _601
REMARK  247  A    between atoms: _600  and  _603
REMARK  248  A    between atoms: _603  and  _604
REMARK  249  A    between atoms: _604  and  _605
REMARK  250  A    between atoms: _605  and  _606
REMARK  251  A    between atoms: _606  and  _607
REMARK  252  A    between atoms: _611  and  _613
REMARK  253  A    between atoms: _613  and  _614
REMARK  254  A    between atoms: _613  and  _616
REMARK  255  A    between atoms: _616  and  _617
REMARK                            x       y       z     vdW  Elec       q    Type
REMARK                         _______ _______ _______ _____ _____    ______ ____
ROOT
ATOM      1  O   HOH     1      54.304  15.840  34.265  0.00  0.00    +0.000 OA
ENDROOT
TORSDOF 0
REMARK  Name = ../refined-set-2016/1x8t/1x8t_pocket.pdb
REMARK  255 active torsions:
REMARK  status: ('A' for Active; 'I' for Inactive)
REMARK    1  A    between atoms: _1  and  _3
REMARK    2  A    between atoms: _3  and  _4
REMARK    3  A    between atoms: _3  and  _6
REMARK    4  A    between atoms: _6  and  _7
REMARK    5  A    between atoms: _9  and  _11
REMARK    6  A    between atoms: _11  and  _12
REMARK    7  A    between atoms: _11  and  _14
REMARK    8  A    between atoms: _14  and  _15
REMARK    9  A    between atoms: _15  and  _16
REMARK   10  A    between atoms: _16  and  _17
REMARK   11  A    between atoms: _17  and  _18
REMARK   12  A    between atoms: _22  and  _24
REMARK   13  A    between atoms: _24  and  _25
REMARK   14  A    between atoms: _24  and  _27
REMARK   15  A    between atoms: _27  and  _28
REMARK   16  A    between atoms: _30  and  _32
REMARK   17  A    between atoms: _32  and  _33
REMARK   18  A    between atoms: _32  and  _35
REMARK   19  A    between atoms: _38  and  _40
REMARK   20  A    between atoms: _40  and  _41
REMARK   21  A    between atoms: _40  and  _43
REMARK   22  A    between atoms: _43  and  _44
REMARK   23  A    between atoms: _46  and  _48
REMARK   24  A    between atoms: _48  and  _49
REMARK   25  A    between atoms: _48  and  _51
REMARK   26  A    between atoms: _51  and  _52
REMARK   27  A    between atoms: _57  and  _59
REMARK   28  A    between atoms: _59  and  _60
REMARK   29  A    between atoms: _59  and  _62
REMARK   30  A    between atoms: _62  and  _63
REMARK   31  A    between atoms: _63  and  _64
REMARK   32  A    between atoms: _64  and  _65
REMARK   33  A    between atoms: _74  and  _76
REMARK   34  A    between atoms: _76  and  _77
REMARK   35  A    between atoms: _76  and  _79
REMARK   36  A    between atoms: _79  and  _80
REMARK   37  A    between atoms: _83  and  _85
REMARK   38  A    between atoms: _85  and  _86
REMARK   39  A    between atoms: _85  and  _88
REMARK   40  A    between atoms: _88  and  _89
REMARK   41  A    between atoms: _94  and  _96
REMARK   42  A    between atoms: _96  and  _97
REMARK   43  A    between atoms: _100  and  _102
REMARK   44  A    between atoms: _102  and  _103
REMARK   45  A    between atoms: _105  and  _107
REMARK   46  A    between atoms: _107  and  _108
REMARK   47  A    between atoms: _107  and  _110
REMARK   48  A    between atoms: _110  and  _111
REMARK   49  A    between atoms: _114  and  _116
REMARK   50  A    between atoms: _116  and  _117
REMARK   51  A    between atoms: _120  and  _122
REMARK   52  A    between atoms: _122  and  _123
REMARK   53  A    between atoms: _122  and  _125
REMARK   54  A    between atoms: _125  and  _126
REMARK   55  A    between atoms: _126  and  _127
REMARK   56  A    between atoms: _129  and  _131
REMARK   57  A    between atoms: _131  and  _132
REMARK   58  A    between atoms: _131  and  _134
REMARK   59  A    between atoms: _134  and  _135
REMARK   60  A    between atoms: _135  and  _136
REMARK   61  A    between atoms: _136  and  _137
REMARK   62  A    between atoms: _147  and  _148
REMARK   63  A    between atoms: _153  and  _155
REMARK   64  A    between atoms: _155  and  _156
REMARK   65  A    between atoms: _155  and  _158
REMARK   66  A    between atoms: _158  and  _159
REMARK   67  A    between atoms: _159  and  _160
REMARK   68  A    between atoms: _160  and  _161
REMARK   69  A    between atoms: _171  and  _172
REMARK   70  A    between atoms: _177  and  _179
REMARK   71  A    between atoms: _179  and  _180
REMARK   72  A    between atoms: _182  and  _184
REMARK   73  A    between atoms: _184  and  _185
REMARK   74  A    between atoms: _184  and  _187
REMARK   75  A    between atoms: _187  and  _188
REMARK   76  A    between atoms: _190  and  _192
REMARK   77  A    between atoms: _192  and  _193
REMARK   78  A    between atoms: _192  and  _195
REMARK   79  A    between atoms: _198  and  _200
REMARK   80  A    between atoms: _200  and  _201
REMARK   81  A    between atoms: _200  and  _203
REMARK   82  A    between atoms: _203  and  _204
REMARK   83  A    between atoms: _206  and  _208
REMARK   84  A    between atoms: _208  and  _209
REMARK   85  A    between atoms: _208  and  _211
REMARK   86  A    between atoms: _211  and  _212
REMARK   87  A    between atoms: _214  and  _216
REMARK   88  A    between atoms: _216  and  _217
REMARK   89  A    between atoms: _216  and  _219
REMARK   90  A    between atoms: _219  and  _220
REMARK   91  A    between atoms: _220  and  _221
REMARK   92  A    between atoms: _226  and  _228
REMARK   93  A    between atoms: _228  and  _229
REMARK   94  A    between atoms: _228  and  _231
REMARK   95  A    between atoms: _231  and  _232
REMARK   96  A    between atoms: _238  and  _240
REMARK   97  A    between atoms: _240  and  _241
REMARK   98  A    between atoms: _240  and  _243
REMARK   99  A    between atoms: _243  and  _244
REMARK  100  A    between atoms: _247  and  _249
REMARK  101  A    between atoms: _249  and  _250
REMARK  102  A    between atoms: _249  and  _252
REMARK  103  A    between atoms: _252  and  _253
REMARK  104  A    between atoms: _256  and  _258
REMARK  105  A    between atoms: _258  and  _259
REMARK  106  A    between atoms: _262  and  _264
REMARK  107  A    between atoms: _264  and  _265
REMARK  108  A    between atoms: _264  and  _267
REMARK  109  A    between atoms: _267  and  _268
REMARK  110  A    between atoms: _268  and  _269
REMARK  111  A    between atoms: _271  and  _273
REMARK  112  A    between atoms: _273  and  _274
REMARK  113  A    between atoms: _273  and  _276
REMARK  114  A    between atoms: _276  and  _277
REMARK  115  A    between atoms: _280  and  _282
REMARK  116  A    between atoms: _282  and  _283
REMARK  117  A    between atoms: _282  and  _285
REMARK  118  A    between atoms: _288  and  _290
REMARK  119  A    between atoms: _290  and  _291
REMARK  120  A    between atoms: _290  and  _293
REMARK  121  A    between atoms: _293  and  _294
REMARK  122  A    between atoms: _296  and  _298
REMARK  123  A    between atoms: _298  and  _299
REMARK  124  A    between atoms: _298  and  _301
REMARK  125  A    between atoms: _301  and  _302
REMARK  126  A    between atoms: _302  and  _303
REMARK  127  A    between atoms: _303  and  _304
REMARK  128  A    between atoms: _304  and  _305
REMARK  129  A    between atoms: _310  and  _311
REMARK  130  A    between atoms: _316  and  _318
REMARK  131  A    between atoms: _318  and  _319
REMARK  132  A    between atoms: _318  and  _321
REMARK  133  A    between atoms: _321  and  _322
REMARK  134  A    between atoms: _327  and  _328
REMARK  135  A    between atoms: _330  and  _332
REMARK  136  A    between atoms: _332  and  _333
REMARK  137  A    between atoms: _332  and  _335
REMARK  138  A    between atoms: _335  and  _336
REMARK  139  A    between atoms: _339  and  _341
REMARK  140  A    between atoms: _341  and  _342
REMARK  141  A    between atoms: _341  and  _344
REMARK  142  A    between atoms: _344  and  _345
REMARK  143  A    between atoms: _348  and  _350
REMARK  144  A    between atoms: _350  and  _351
REMARK  145  A    between atoms: _350  and  _353
REMARK  146  A    between atoms: _353  and  _354
REMARK  147  A    between atoms: _357  and  _359
REMARK  148  A    between atoms: _359  and  _360
REMARK  149  A    between atoms: _359  and  _362
REMARK  150  A    between atoms: _362  and  _363
REMARK  151  A    between atoms: _366  and  _368
REMARK  152  A    between atoms: _368  and  _369
REMARK  153  A    between atoms: _368  and  _371
REMARK  154  A    between atoms: _371  and  _372
REMARK  155  A    between atoms: _374  and  _376
REMARK  156  A    between atoms: _376  and  _377
REMARK  157  A    between atoms: _376  and  _379
REMARK  158  A    between atoms: _379  and  _380
REMARK  159  A    between atoms: _385  and  _386
REMARK  160  A    between atoms: _388  and  _390
REMARK  161  A    between atoms: _390  and  _391
REMARK  162  A    between atoms: _390  and  _393
REMARK  163  A    between atoms: _393  and  _394
REMARK  164  A    between atoms: _397  and  _399
REMARK  165  A    between atoms: _399  and  _400
REMARK  166  A    between atoms: _399  and  _402
REMARK  167  A    between atoms: _402  and  _403
REMARK  168  A    between atoms: _408  and  _410
REMARK  169  A    between atoms: _410  and  _411
REMARK  170  A    between atoms: _410  and  _413
REMARK  171  A    between atoms: _413  and  _414
REMARK  172  A    between atoms: _418  and  _419
REMARK  173  A    between atoms: _424  and  _426
REMARK  174  A    between atoms: _426  and  _427
REMARK  175  A    between atoms: _426  and  _429
REMARK  176  A    between atoms: _429  and  _430
REMARK  177  A    between atoms: _433  and  _435
REMARK  178  A    between atoms: _435  and  _436
REMARK  179  A    between atoms: _439  and  _441
REMARK  180  A    between atoms: _441  and  _442
REMARK  181  A    between atoms: _441  and  _444
REMARK  182  A    between atoms: _444  and  _445
REMARK  183  A    between atoms: _445  and  _446
REMARK  184  A    between atoms: _448  and  _450
REMARK  185  A    between atoms: _450  and  _451
REMARK  186  A    between atoms: _450  and  _453
REMARK  187  A    between atoms: _453  and  _454
REMARK  188  A    between atoms: _459  and  _461
REMARK  189  A    between atoms: _461  and  _462
REMARK  190  A    between atoms: _461  and  _464
REMARK  191  A    between atoms: _464  and  _465
REMARK  192  A    between atoms: _475  and  _477
REMARK  193  A    between atoms: _477  and  _478
REMARK  194  A    between atoms: _477  and  _480
REMARK  195  A    between atoms: _483  and  _485
REMARK  196  A    between atoms: _485  and  _486
REMARK  197  A    between atoms: _485  and  _488
REMARK  198  A    between atoms: _488  and  _489
REMARK  199  A    between atoms: _489  and  _490
REMARK  200  A    between atoms: _490  and  _491
REMARK  201  A    between atoms: _491  and  _492
REMARK  202  A    between atoms: _496  and  _498
REMARK  203  A    between atoms: _498  and  _499
REMARK  204  A    between atoms: _498  and  _501
REMARK  205  A    between atoms: _501  and  _502
REMARK  206  A    between atoms: _502  and  _503
REMARK  207  A    between atoms: _506  and  _508
REMARK  208  A    between atoms: _508  and  _509
REMARK  209  A    between atoms: _508  and  _511
REMARK  210  A    between atoms: _511  and  _512
REMARK  211  A    between atoms: _515  and  _517
REMARK  212  A    between atoms: _517  and  _518
REMARK  213  A    between atoms: _517  and  _520
REMARK  214  A    between atoms: _520  and  _521
REMARK  215  A    between atoms: _521  and  _522
REMARK  216  A    between atoms: _522  and  _523
REMARK  217  A    between atoms: _532  and  _534
REMARK  218  A    between atoms: _534  and  _535
REMARK  219  A    between atoms: _534  and  _537
REMARK  220  A    between atoms: _537  and  _538
REMARK  221  A    between atoms: _543  and  _545
REMARK  222  A    between atoms: _545  and  _546
REMARK  223  A    between atoms: _545  and  _548
REMARK  224  A    between atoms: _548  and  _549
REMARK  225  A    between atoms: _552  and  _554
REMARK  226  A    between atoms: _554  and  _555
REMARK  227  A    between atoms: _554  and  _557
REMARK  228  A    between atoms: _557  and  _558
REMARK  229  A    between atoms: _563  and  _565
REMARK  230  A    between atoms: _565  and  _566
REMARK  231  A    between atoms: _565  and  _568
REMARK  232  A    between atoms: _568  and  _569
REMARK  233  A    between atoms: _569  and  _570
REMARK  234  A    between atoms: _570  and  _571
REMARK  235  A    between atoms: _580  and  _582
REMARK  236  A    between atoms: _582  and  _583
REMARK  237  A    between atoms: _582  and  _585
REMARK  238  A    between atoms: _585  and  _586
REMARK  239  A    between atoms: _586  and  _587
REMARK  240  A    between atoms: _589  and  _591
REMARK  241  A    between atoms: _591  and  _592
REMARK  242  A    between atoms: _591  and  _594
REMARK  243  A    between atoms: _594  and  _595
REMARK  244  A    between atoms: _595  and  _596
REMARK  245  A    between atoms: _598  and  _600
REMARK  246  A    between atoms: _600  and  _601
REMARK  247  A    between atoms: _600  and  _603
REMARK  248  A    between atoms: _603  and  _604
REMARK  249  A    between atoms: _604  and  _605
REMARK  250  A    between atoms: _605  and  _606
REMARK  251  A    between atoms: _606  and  _607
REMARK  252  A    between atoms: _611  and  _613
REMARK  253  A    between atoms: _613  and  _614
REMARK  254  A    between atoms: _613  and  _616
REMARK  255  A    between atoms: _616  and  _617
REMARK                            x       y       z     vdW  Elec       q    Type
REMARK                         _______ _______ _______ _____ _____    ______ ____
ROOT
ATOM      1  O   HOH     1      53.963  10.699  34.927  0.00  0.00    +0.000 OA
ENDROOT
TORSDOF 0
REMARK  Name = ../refined-set-2016/1x8t/1x8t_pocket.pdb
REMARK  255 active torsions:
REMARK  status: ('A' for Active; 'I' for Inactive)
REMARK    1  A    between atoms: _1  and  _3
REMARK    2  A    between atoms: _3  and  _4
REMARK    3  A    between atoms: _3  and  _6
REMARK    4  A    between atoms: _6  and  _7
REMARK    5  A    between atoms: _9  and  _11
REMARK    6  A    between atoms: _11  and  _12
REMARK    7  A    between atoms: _11  and  _14
REMARK    8  A    between atoms: _14  and  _15
REMARK    9  A    between atoms: _15  and  _16
REMARK   10  A    between atoms: _16  and  _17
REMARK   11  A    between atoms: _17  and  _18
REMARK   12  A    between atoms: _22  and  _24
REMARK   13  A    between atoms: _24  and  _25
REMARK   14  A    between atoms: _24  and  _27
REMARK   15  A    between atoms: _27  and  _28
REMARK   16  A    between atoms: _30  and  _32
REMARK   17  A    between atoms: _32  and  _33
REMARK   18  A    between atoms: _32  and  _35
REMARK   19  A    between atoms: _38  and  _40
REMARK   20  A    between atoms: _40  and  _41
REMARK   21  A    between atoms: _40  and  _43
REMARK   22  A    between atoms: _43  and  _44
REMARK   23  A    between atoms: _46  and  _48
REMARK   24  A    between atoms: _48  and  _49
REMARK   25  A    between atoms: _48  and  _51
REMARK   26  A    between atoms: _51  and  _52
REMARK   27  A    between atoms: _57  and  _59
REMARK   28  A    between atoms: _59  and  _60
REMARK   29  A    between atoms: _59  and  _62
REMARK   30  A    between atoms: _62  and  _63
REMARK   31  A    between atoms: _63  and  _64
REMARK   32  A    between atoms: _64  and  _65
REMARK   33  A    between atoms: _74  and  _76
REMARK   34  A    between atoms: _76  and  _77
REMARK   35  A    between atoms: _76  and  _79
REMARK   36  A    between atoms: _79  and  _80
REMARK   37  A    between atoms: _83  and  _85
REMARK   38  A    between atoms: _85  and  _86
REMARK   39  A    between atoms: _85  and  _88
REMARK   40  A    between atoms: _88  and  _89
REMARK   41  A    between atoms: _94  and  _96
REMARK   42  A    between atoms: _96  and  _97
REMARK   43  A    between atoms: _100  and  _102
REMARK   44  A    between atoms: _102  and  _103
REMARK   45  A    between atoms: _105  and  _107
REMARK   46  A    between atoms: _107  and  _108
REMARK   47  A    between atoms: _107  and  _110
REMARK   48  A    between atoms: _110  and  _111
REMARK   49  A    between atoms: _114  and  _116
REMARK   50  A    between atoms: _116  and  _117
REMARK   51  A    between atoms: _120  and  _122
REMARK   52  A    between atoms: _122  and  _123
REMARK   53  A    between atoms: _122  and  _125
REMARK   54  A    between atoms: _125  and  _126
REMARK   55  A    between atoms: _126  and  _127
REMARK   56  A    between atoms: _129  and  _131
REMARK   57  A    between atoms: _131  and  _132
REMARK   58  A    between atoms: _131  and  _134
REMARK   59  A    between atoms: _134  and  _135
REMARK   60  A    between atoms: _135  and  _136
REMARK   61  A    between atoms: _136  and  _137
REMARK   62  A    between atoms: _147  and  _148
REMARK   63  A    between atoms: _153  and  _155
REMARK   64  A    between atoms: _155  and  _156
REMARK   65  A    between atoms: _155  and  _158
REMARK   66  A    between atoms: _158  and  _159
REMARK   67  A    between atoms: _159  and  _160
REMARK   68  A    between atoms: _160  and  _161
REMARK   69  A    between atoms: _171  and  _172
REMARK   70  A    between atoms: _177  and  _179
REMARK   71  A    between atoms: _179  and  _180
REMARK   72  A    between atoms: _182  and  _184
REMARK   73  A    between atoms: _184  and  _185
REMARK   74  A    between atoms: _184  and  _187
REMARK   75  A    between atoms: _187  and  _188
REMARK   76  A    between atoms: _190  and  _192
REMARK   77  A    between atoms: _192  and  _193
REMARK   78  A    between atoms: _192  and  _195
REMARK   79  A    between atoms: _198  and  _200
REMARK   80  A    between atoms: _200  and  _201
REMARK   81  A    between atoms: _200  and  _203
REMARK   82  A    between atoms: _203  and  _204
REMARK   83  A    between atoms: _206  and  _208
REMARK   84  A    between atoms: _208  and  _209
REMARK   85  A    between atoms: _208  and  _211
REMARK   86  A    between atoms: _211  and  _212
REMARK   87  A    between atoms: _214  and  _216
REMARK   88  A    between atoms: _216  and  _217
REMARK   89  A    between atoms: _216  and  _219
REMARK   90  A    between atoms: _219  and  _220
REMARK   91  A    between atoms: _220  and  _221
REMARK   92  A    between atoms: _226  and  _228
REMARK   93  A    between atoms: _228  and  _229
REMARK   94  A    between atoms: _228  and  _231
REMARK   95  A    between atoms: _231  and  _232
REMARK   96  A    between atoms: _238  and  _240
REMARK   97  A    between atoms: _240  and  _241
REMARK   98  A    between atoms: _240  and  _243
REMARK   99  A    between atoms: _243  and  _244
REMARK  100  A    between atoms: _247  and  _249
REMARK  101  A    between atoms: _249  and  _250
REMARK  102  A    between atoms: _249  and  _252
REMARK  103  A    between atoms: _252  and  _253
REMARK  104  A    between atoms: _256  and  _258
REMARK  105  A    between atoms: _258  and  _259
REMARK  106  A    between atoms: _262  and  _264
REMARK  107  A    between atoms: _264  and  _265
REMARK  108  A    between atoms: _264  and  _267
REMARK  109  A    between atoms: _267  and  _268
REMARK  110  A    between atoms: _268  and  _269
REMARK  111  A    between atoms: _271  and  _273
REMARK  112  A    between atoms: _273  and  _274
REMARK  113  A    between atoms: _273  and  _276
REMARK  114  A    between atoms: _276  and  _277
REMARK  115  A    between atoms: _280  and  _282
REMARK  116  A    between atoms: _282  and  _283
REMARK  117  A    between atoms: _282  and  _285
REMARK  118  A    between atoms: _288  and  _290
REMARK  119  A    between atoms: _290  and  _291
REMARK  120  A    between atoms: _290  and  _293
REMARK  121  A    between atoms: _293  and  _294
REMARK  122  A    between atoms: _296  and  _298
REMARK  123  A    between atoms: _298  and  _299
REMARK  124  A    between atoms: _298  and  _301
REMARK  125  A    between atoms: _301  and  _302
REMARK  126  A    between atoms: _302  and  _303
REMARK  127  A    between atoms: _303  and  _304
REMARK  128  A    between atoms: _304  and  _305
REMARK  129  A    between atoms: _310  and  _311
REMARK  130  A    between atoms: _316  and  _318
REMARK  131  A    between atoms: _318  and  _319
REMARK  132  A    between atoms: _318  and  _321
REMARK  133  A    between atoms: _321  and  _322
REMARK  134  A    between atoms: _327  and  _328
REMARK  135  A    between atoms: _330  and  _332
REMARK  136  A    between atoms: _332  and  _333
REMARK  137  A    between atoms: _332  and  _335
REMARK  138  A    between atoms: _335  and  _336
REMARK  139  A    between atoms: _339  and  _341
REMARK  140  A    between atoms: _341  and  _342
REMARK  141  A    between atoms: _341  and  _344
REMARK  142  A    between atoms: _344  and  _345
REMARK  143  A    between atoms: _348  and  _350
REMARK  144  A    between atoms: _350  and  _351
REMARK  145  A    between atoms: _350  and  _353
REMARK  146  A    between atoms: _353  and  _354
REMARK  147  A    between atoms: _357  and  _359
REMARK  148  A    between atoms: _359  and  _360
REMARK  149  A    between atoms: _359  and  _362
REMARK  150  A    between atoms: _362  and  _363
REMARK  151  A    between atoms: _366  and  _368
REMARK  152  A    between atoms: _368  and  _369
REMARK  153  A    between atoms: _368  and  _371
REMARK  154  A    between atoms: _371  and  _372
REMARK  155  A    between atoms: _374  and  _376
REMARK  156  A    between atoms: _376  and  _377
REMARK  157  A    between atoms: _376  and  _379
REMARK  158  A    between atoms: _379  and  _380
REMARK  159  A    between atoms: _385  and  _386
REMARK  160  A    between atoms: _388  and  _390
REMARK  161  A    between atoms: _390  and  _391
REMARK  162  A    between atoms: _390  and  _393
REMARK  163  A    between atoms: _393  and  _394
REMARK  164  A    between atoms: _397  and  _399
REMARK  165  A    between atoms: _399  and  _400
REMARK  166  A    between atoms: _399  and  _402
REMARK  167  A    between atoms: _402  and  _403
REMARK  168  A    between atoms: _408  and  _410
REMARK  169  A    between atoms: _410  and  _411
REMARK  170  A    between atoms: _410  and  _413
REMARK  171  A    between atoms: _413  and  _414
REMARK  172  A    between atoms: _418  and  _419
REMARK  173  A    between atoms: _424  and  _426
REMARK  174  A    between atoms: _426  and  _427
REMARK  175  A    between atoms: _426  and  _429
REMARK  176  A    between atoms: _429  and  _430
REMARK  177  A    between atoms: _433  and  _435
REMARK  178  A    between atoms: _435  and  _436
REMARK  179  A    between atoms: _439  and  _441
REMARK  180  A    between atoms: _441  and  _442
REMARK  181  A    between atoms: _441  and  _444
REMARK  182  A    between atoms: _444  and  _445
REMARK  183  A    between atoms: _445  and  _446
REMARK  184  A    between atoms: _448  and  _450
REMARK  185  A    between atoms: _450  and  _451
REMARK  186  A    between atoms: _450  and  _453
REMARK  187  A    between atoms: _453  and  _454
REMARK  188  A    between atoms: _459  and  _461
REMARK  189  A    between atoms: _461  and  _462
REMARK  190  A    between atoms: _461  and  _464
REMARK  191  A    between atoms: _464  and  _465
REMARK  192  A    between atoms: _475  and  _477
REMARK  193  A    between atoms: _477  and  _478
REMARK  194  A    between atoms: _477  and  _480
REMARK  195  A    between atoms: _483  and  _485
REMARK  196  A    between atoms: _485  and  _486
REMARK  197  A    between atoms: _485  and  _488
REMARK  198  A    between atoms: _488  and  _489
REMARK  199  A    between atoms: _489  and  _490
REMARK  200  A    between atoms: _490  and  _491
REMARK  201  A    between atoms: _491  and  _492
REMARK  202  A    between atoms: _496  and  _498
REMARK  203  A    between atoms: _498  and  _499
REMARK  204  A    between atoms: _498  and  _501
REMARK  205  A    between atoms: _501  and  _502
REMARK  206  A    between atoms: _502  and  _503
REMARK  207  A    between atoms: _506  and  _508
REMARK  208  A    between atoms: _508  and  _509
REMARK  209  A    between atoms: _508  and  _511
REMARK  210  A    between atoms: _511  and  _512
REMARK  211  A    between atoms: _515  and  _517
REMARK  212  A    between atoms: _517  and  _518
REMARK  213  A    between atoms: _517  and  _520
REMARK  214  A    between atoms: _520  and  _521
REMARK  215  A    between atoms: _521  and  _522
REMARK  216  A    between atoms: _522  and  _523
REMARK  217  A    between atoms: _532  and  _534
REMARK  218  A    between atoms: _534  and  _535
REMARK  219  A    between atoms: _534  and  _537
REMARK  220  A    between atoms: _537  and  _538
REMARK  221  A    between atoms: _543  and  _545
REMARK  222  A    between atoms: _545  and  _546
REMARK  223  A    between atoms: _545  and  _548
REMARK  224  A    between atoms: _548  and  _549
REMARK  225  A    between atoms: _552  and  _554
REMARK  226  A    between atoms: _554  and  _555
REMARK  227  A    between atoms: _554  and  _557
REMARK  228  A    between atoms: _557  and  _558
REMARK  229  A    between atoms: _563  and  _565
REMARK  230  A    between atoms: _565  and  _566
REMARK  231  A    between atoms: _565  and  _568
REMARK  232  A    between atoms: _568  and  _569
REMARK  233  A    between atoms: _569  and  _570
REMARK  234  A    between atoms: _570  and  _571
REMARK  235  A    between atoms: _580  and  _582
REMARK  236  A    between atoms: _582  and  _583
REMARK  237  A    between atoms: _582  and  _585
REMARK  238  A    between atoms: _585  and  _586
REMARK  239  A    between atoms: _586  and  _587
REMARK  240  A    between atoms: _589  and  _591
REMARK  241  A    between atoms: _591  and  _592
REMARK  242  A    between atoms: _591  and  _594
REMARK  243  A    between atoms: _594  and  _595
REMARK  244  A    between atoms: _595  and  _596
REMARK  245  A    between atoms: _598  and  _600
REMARK  246  A    between atoms: _600  and  _601
REMARK  247  A    between atoms: _600  and  _603
REMARK  248  A    between atoms: _603  and  _604
REMARK  249  A    between atoms: _604  and  _605
REMARK  250  A    between atoms: _605  and  _606
REMARK  251  A    between atoms: _606  and  _607
REMARK  252  A    between atoms: _611  and  _613
REMARK  253  A    between atoms: _613  and  _614
REMARK  254  A    between atoms: _613  and  _616
REMARK  255  A    between atoms: _616  and  _617
REMARK                            x       y       z     vdW  Elec       q    Type
REMARK                         _______ _______ _______ _____ _____    ______ ____
ROOT
ATOM      1  O   HOH     1      48.425   4.009  22.425  0.00  0.00    +0.000 OA
ENDROOT
TORSDOF 0
REMARK  Name = ../refined-set-2016/1x8t/1x8t_pocket.pdb
REMARK  255 active torsions:
REMARK  status: ('A' for Active; 'I' for Inactive)
REMARK    1  A    between atoms: _1  and  _3
REMARK    2  A    between atoms: _3  and  _4
REMARK    3  A    between atoms: _3  and  _6
REMARK    4  A    between atoms: _6  and  _7
REMARK    5  A    between atoms: _9  and  _11
REMARK    6  A    between atoms: _11  and  _12
REMARK    7  A    between atoms: _11  and  _14
REMARK    8  A    between atoms: _14  and  _15
REMARK    9  A    between atoms: _15  and  _16
REMARK   10  A    between atoms: _16  and  _17
REMARK   11  A    between atoms: _17  and  _18
REMARK   12  A    between atoms: _22  and  _24
REMARK   13  A    between atoms: _24  and  _25
REMARK   14  A    between atoms: _24  and  _27
REMARK   15  A    between atoms: _27  and  _28
REMARK   16  A    between atoms: _30  and  _32
REMARK   17  A    between atoms: _32  and  _33
REMARK   18  A    between atoms: _32  and  _35
REMARK   19  A    between atoms: _38  and  _40
REMARK   20  A    between atoms: _40  and  _41
REMARK   21  A    between atoms: _40  and  _43
REMARK   22  A    between atoms: _43  and  _44
REMARK   23  A    between atoms: _46  and  _48
REMARK   24  A    between atoms: _48  and  _49
REMARK   25  A    between atoms: _48  and  _51
REMARK   26  A    between atoms: _51  and  _52
REMARK   27  A    between atoms: _57  and  _59
REMARK   28  A    between atoms: _59  and  _60
REMARK   29  A    between atoms: _59  and  _62
REMARK   30  A    between atoms: _62  and  _63
REMARK   31  A    between atoms: _63  and  _64
REMARK   32  A    between atoms: _64  and  _65
REMARK   33  A    between atoms: _74  and  _76
REMARK   34  A    between atoms: _76  and  _77
REMARK   35  A    between atoms: _76  and  _79
REMARK   36  A    between atoms: _79  and  _80
REMARK   37  A    between atoms: _83  and  _85
REMARK   38  A    between atoms: _85  and  _86
REMARK   39  A    between atoms: _85  and  _88
REMARK   40  A    between atoms: _88  and  _89
REMARK   41  A    between atoms: _94  and  _96
REMARK   42  A    between atoms: _96  and  _97
REMARK   43  A    between atoms: _100  and  _102
REMARK   44  A    between atoms: _102  and  _103
REMARK   45  A    between atoms: _105  and  _107
REMARK   46  A    between atoms: _107  and  _108
REMARK   47  A    between atoms: _107  and  _110
REMARK   48  A    between atoms: _110  and  _111
REMARK   49  A    between atoms: _114  and  _116
REMARK   50  A    between atoms: _116  and  _117
REMARK   51  A    between atoms: _120  and  _122
REMARK   52  A    between atoms: _122  and  _123
REMARK   53  A    between atoms: _122  and  _125
REMARK   54  A    between atoms: _125  and  _126
REMARK   55  A    between atoms: _126  and  _127
REMARK   56  A    between atoms: _129  and  _131
REMARK   57  A    between atoms: _131  and  _132
REMARK   58  A    between atoms: _131  and  _134
REMARK   59  A    between atoms: _134  and  _135
REMARK   60  A    between atoms: _135  and  _136
REMARK   61  A    between atoms: _136  and  _137
REMARK   62  A    between atoms: _147  and  _148
REMARK   63  A    between atoms: _153  and  _155
REMARK   64  A    between atoms: _155  and  _156
REMARK   65  A    between atoms: _155  and  _158
REMARK   66  A    between atoms: _158  and  _159
REMARK   67  A    between atoms: _159  and  _160
REMARK   68  A    between atoms: _160  and  _161
REMARK   69  A    between atoms: _171  and  _172
REMARK   70  A    between atoms: _177  and  _179
REMARK   71  A    between atoms: _179  and  _180
REMARK   72  A    between atoms: _182  and  _184
REMARK   73  A    between atoms: _184  and  _185
REMARK   74  A    between atoms: _184  and  _187
REMARK   75  A    between atoms: _187  and  _188
REMARK   76  A    between atoms: _190  and  _192
REMARK   77  A    between atoms: _192  and  _193
REMARK   78  A    between atoms: _192  and  _195
REMARK   79  A    between atoms: _198  and  _200
REMARK   80  A    between atoms: _200  and  _201
REMARK   81  A    between atoms: _200  and  _203
REMARK   82  A    between atoms: _203  and  _204
REMARK   83  A    between atoms: _206  and  _208
REMARK   84  A    between atoms: _208  and  _209
REMARK   85  A    between atoms: _208  and  _211
REMARK   86  A    between atoms: _211  and  _212
REMARK   87  A    between atoms: _214  and  _216
REMARK   88  A    between atoms: _216  and  _217
REMARK   89  A    between atoms: _216  and  _219
REMARK   90  A    between atoms: _219  and  _220
REMARK   91  A    between atoms: _220  and  _221
REMARK   92  A    between atoms: _226  and  _228
REMARK   93  A    between atoms: _228  and  _229
REMARK   94  A    between atoms: _228  and  _231
REMARK   95  A    between atoms: _231  and  _232
REMARK   96  A    between atoms: _238  and  _240
REMARK   97  A    between atoms: _240  and  _241
REMARK   98  A    between atoms: _240  and  _243
REMARK   99  A    between atoms: _243  and  _244
REMARK  100  A    between atoms: _247  and  _249
REMARK  101  A    between atoms: _249  and  _250
REMARK  102  A    between atoms: _249  and  _252
REMARK  103  A    between atoms: _252  and  _253
REMARK  104  A    between atoms: _256  and  _258
REMARK  105  A    between atoms: _258  and  _259
REMARK  106  A    between atoms: _262  and  _264
REMARK  107  A    between atoms: _264  and  _265
REMARK  108  A    between atoms: _264  and  _267
REMARK  109  A    between atoms: _267  and  _268
REMARK  110  A    between atoms: _268  and  _269
REMARK  111  A    between atoms: _271  and  _273
REMARK  112  A    between atoms: _273  and  _274
REMARK  113  A    between atoms: _273  and  _276
REMARK  114  A    between atoms: _276  and  _277
REMARK  115  A    between atoms: _280  and  _282
REMARK  116  A    between atoms: _282  and  _283
REMARK  117  A    between atoms: _282  and  _285
REMARK  118  A    between atoms: _288  and  _290
REMARK  119  A    between atoms: _290  and  _291
REMARK  120  A    between atoms: _290  and  _293
REMARK  121  A    between atoms: _293  and  _294
REMARK  122  A    between atoms: _296  and  _298
REMARK  123  A    between atoms: _298  and  _299
REMARK  124  A    between atoms: _298  and  _301
REMARK  125  A    between atoms: _301  and  _302
REMARK  126  A    between atoms: _302  and  _303
REMARK  127  A    between atoms: _303  and  _304
REMARK  128  A    between atoms: _304  and  _305
REMARK  129  A    between atoms: _310  and  _311
REMARK  130  A    between atoms: _316  and  _318
REMARK  131  A    between atoms: _318  and  _319
REMARK  132  A    between atoms: _318  and  _321
REMARK  133  A    between atoms: _321  and  _322
REMARK  134  A    between atoms: _327  and  _328
REMARK  135  A    between atoms: _330  and  _332
REMARK  136  A    between atoms: _332  and  _333
REMARK  137  A    between atoms: _332  and  _335
REMARK  138  A    between atoms: _335  and  _336
REMARK  139  A    between atoms: _339  and  _341
REMARK  140  A    between atoms: _341  and  _342
REMARK  141  A    between atoms: _341  and  _344
REMARK  142  A    between atoms: _344  and  _345
REMARK  143  A    between atoms: _348  and  _350
REMARK  144  A    between atoms: _350  and  _351
REMARK  145  A    between atoms: _350  and  _353
REMARK  146  A    between atoms: _353  and  _354
REMARK  147  A    between atoms: _357  and  _359
REMARK  148  A    between atoms: _359  and  _360
REMARK  149  A    between atoms: _359  and  _362
REMARK  150  A    between atoms: _362  and  _363
REMARK  151  A    between atoms: _366  and  _368
REMARK  152  A    between atoms: _368  and  _369
REMARK  153  A    between atoms: _368  and  _371
REMARK  154  A    between atoms: _371  and  _372
REMARK  155  A    between atoms: _374  and  _376
REMARK  156  A    between atoms: _376  and  _377
REMARK  157  A    between atoms: _376  and  _379
REMARK  158  A    between atoms: _379  and  _380
REMARK  159  A    between atoms: _385  and  _386
REMARK  160  A    between atoms: _388  and  _390
REMARK  161  A    between atoms: _390  and  _391
REMARK  162  A    between atoms: _390  and  _393
REMARK  163  A    between atoms: _393  and  _394
REMARK  164  A    between atoms: _397  and  _399
REMARK  165  A    between atoms: _399  and  _400
REMARK  166  A    between atoms: _399  and  _402
REMARK  167  A    between atoms: _402  and  _403
REMARK  168  A    between atoms: _408  and  _410
REMARK  169  A    between atoms: _410  and  _411
REMARK  170  A    between atoms: _410  and  _413
REMARK  171  A    between atoms: _413  and  _414
REMARK  172  A    between atoms: _418  and  _419
REMARK  173  A    between atoms: _424  and  _426
REMARK  174  A    between atoms: _426  and  _427
REMARK  175  A    between atoms: _426  and  _429
REMARK  176  A    between atoms: _429  and  _430
REMARK  177  A    between atoms: _433  and  _435
REMARK  178  A    between atoms: _435  and  _436
REMARK  179  A    between atoms: _439  and  _441
REMARK  180  A    between atoms: _441  and  _442
REMARK  181  A    between atoms: _441  and  _444
REMARK  182  A    between atoms: _444  and  _445
REMARK  183  A    between atoms: _445  and  _446
REMARK  184  A    between atoms: _448  and  _450
REMARK  185  A    between atoms: _450  and  _451
REMARK  186  A    between atoms: _450  and  _453
REMARK  187  A    between atoms: _453  and  _454
REMARK  188  A    between atoms: _459  and  _461
REMARK  189  A    between atoms: _461  and  _462
REMARK  190  A    between atoms: _461  and  _464
REMARK  191  A    between atoms: _464  and  _465
REMARK  192  A    between atoms: _475  and  _477
REMARK  193  A    between atoms: _477  and  _478
REMARK  194  A    between atoms: _477  and  _480
REMARK  195  A    between atoms: _483  and  _485
REMARK  196  A    between atoms: _485  and  _486
REMARK  197  A    between atoms: _485  and  _488
REMARK  198  A    between atoms: _488  and  _489
REMARK  199  A    between atoms: _489  and  _490
REMARK  200  A    between atoms: _490  and  _491
REMARK  201  A    between atoms: _491  and  _492
REMARK  202  A    between atoms: _496  and  _498
REMARK  203  A    between atoms: _498  and  _499
REMARK  204  A    between atoms: _498  and  _501
REMARK  205  A    between atoms: _501  and  _502
REMARK  206  A    between atoms: _502  and  _503
REMARK  207  A    between atoms: _506  and  _508
REMARK  208  A    between atoms: _508  and  _509
REMARK  209  A    between atoms: _508  and  _511
REMARK  210  A    between atoms: _511  and  _512
REMARK  211  A    between atoms: _515  and  _517
REMARK  212  A    between atoms: _517  and  _518
REMARK  213  A    between atoms: _517  and  _520
REMARK  214  A    between atoms: _520  and  _521
REMARK  215  A    between atoms: _521  and  _522
REMARK  216  A    between atoms: _522  and  _523
REMARK  217  A    between atoms: _532  and  _534
REMARK  218  A    between atoms: _534  and  _535
REMARK  219  A    between atoms: _534  and  _537
REMARK  220  A    between atoms: _537  and  _538
REMARK  221  A    between atoms: _543  and  _545
REMARK  222  A    between atoms: _545  and  _546
REMARK  223  A    between atoms: _545  and  _548
REMARK  224  A    between atoms: _548  and  _549
REMARK  225  A    between atoms: _552  and  _554
REMARK  226  A    between atoms: _554  and  _555
REMARK  227  A    between atoms: _554  and  _557
REMARK  228  A    between atoms: _557  and  _558
REMARK  229  A    between atoms: _563  and  _565
REMARK  230  A    between atoms: _565  and  _566
REMARK  231  A    between atoms: _565  and  _568
REMARK  232  A    between atoms: _568  and  _569
REMARK  233  A    between atoms: _569  and  _570
REMARK  234  A    between atoms: _570  and  _571
REMARK  235  A    between atoms: _580  and  _582
REMARK  236  A    between atoms: _582  and  _583
REMARK  237  A    between atoms: _582  and  _585
REMARK  238  A    between atoms: _585  and  _586
REMARK  239  A    between atoms: _586  and  _587
REMARK  240  A    between atoms: _589  and  _591
REMARK  241  A    between atoms: _591  and  _592
REMARK  242  A    between atoms: _591  and  _594
REMARK  243  A    between atoms: _594  and  _595
REMARK  244  A    between atoms: _595  and  _596
REMARK  245  A    between atoms: _598  and  _600
REMARK  246  A    between atoms: _600  and  _601
REMARK  247  A    between atoms: _600  and  _603
REMARK  248  A    between atoms: _603  and  _604
REMARK  249  A    between atoms: _604  and  _605
REMARK  250  A    between atoms: _605  and  _606
REMARK  251  A    between atoms: _606  and  _607
REMARK  252  A    between atoms: _611  and  _613
REMARK  253  A    between atoms: _613  and  _614
REMARK  254  A    between atoms: _613  and  _616
REMARK  255  A    between atoms: _616  and  _617
REMARK                            x       y       z     vdW  Elec       q    Type
REMARK                         _______ _______ _______ _____ _____    ______ ____
ROOT
ATOM      1  O   HOH     1      63.378  13.076  35.605  0.00  0.00    +0.000 OA
ENDROOT
TORSDOF 0
REMARK  Name = ../refined-set-2016/1x8t/1x8t_pocket.pdb
REMARK  255 active torsions:
REMARK  status: ('A' for Active; 'I' for Inactive)
REMARK    1  A    between atoms: _1  and  _3
REMARK    2  A    between atoms: _3  and  _4
REMARK    3  A    between atoms: _3  and  _6
REMARK    4  A    between atoms: _6  and  _7
REMARK    5  A    between atoms: _9  and  _11
REMARK    6  A    between atoms: _11  and  _12
REMARK    7  A    between atoms: _11  and  _14
REMARK    8  A    between atoms: _14  and  _15
REMARK    9  A    between atoms: _15  and  _16
REMARK   10  A    between atoms: _16  and  _17
REMARK   11  A    between atoms: _17  and  _18
REMARK   12  A    between atoms: _22  and  _24
REMARK   13  A    between atoms: _24  and  _25
REMARK   14  A    between atoms: _24  and  _27
REMARK   15  A    between atoms: _27  and  _28
REMARK   16  A    between atoms: _30  and  _32
REMARK   17  A    between atoms: _32  and  _33
REMARK   18  A    between atoms: _32  and  _35
REMARK   19  A    between atoms: _38  and  _40
REMARK   20  A    between atoms: _40  and  _41
REMARK   21  A    between atoms: _40  and  _43
REMARK   22  A    between atoms: _43  and  _44
REMARK   23  A    between atoms: _46  and  _48
REMARK   24  A    between atoms: _48  and  _49
REMARK   25  A    between atoms: _48  and  _51
REMARK   26  A    between atoms: _51  and  _52
REMARK   27  A    between atoms: _57  and  _59
REMARK   28  A    between atoms: _59  and  _60
REMARK   29  A    between atoms: _59  and  _62
REMARK   30  A    between atoms: _62  and  _63
REMARK   31  A    between atoms: _63  and  _64
REMARK   32  A    between atoms: _64  and  _65
REMARK   33  A    between atoms: _74  and  _76
REMARK   34  A    between atoms: _76  and  _77
REMARK   35  A    between atoms: _76  and  _79
REMARK   36  A    between atoms: _79  and  _80
REMARK   37  A    between atoms: _83  and  _85
REMARK   38  A    between atoms: _85  and  _86
REMARK   39  A    between atoms: _85  and  _88
REMARK   40  A    between atoms: _88  and  _89
REMARK   41  A    between atoms: _94  and  _96
REMARK   42  A    between atoms: _96  and  _97
REMARK   43  A    between atoms: _100  and  _102
REMARK   44  A    between atoms: _102  and  _103
REMARK   45  A    between atoms: _105  and  _107
REMARK   46  A    between atoms: _107  and  _108
REMARK   47  A    between atoms: _107  and  _110
REMARK   48  A    between atoms: _110  and  _111
REMARK   49  A    between atoms: _114  and  _116
REMARK   50  A    between atoms: _116  and  _117
REMARK   51  A    between atoms: _120  and  _122
REMARK   52  A    between atoms: _122  and  _123
REMARK   53  A    between atoms: _122  and  _125
REMARK   54  A    between atoms: _125  and  _126
REMARK   55  A    between atoms: _126  and  _127
REMARK   56  A    between atoms: _129  and  _131
REMARK   57  A    between atoms: _131  and  _132
REMARK   58  A    between atoms: _131  and  _134
REMARK   59  A    between atoms: _134  and  _135
REMARK   60  A    between atoms: _135  and  _136
REMARK   61  A    between atoms: _136  and  _137
REMARK   62  A    between atoms: _147  and  _148
REMARK   63  A    between atoms: _153  and  _155
REMARK   64  A    between atoms: _155  and  _156
REMARK   65  A    between atoms: _155  and  _158
REMARK   66  A    between atoms: _158  and  _159
REMARK   67  A    between atoms: _159  and  _160
REMARK   68  A    between atoms: _160  and  _161
REMARK   69  A    between atoms: _171  and  _172
REMARK   70  A    between atoms: _177  and  _179
REMARK   71  A    between atoms: _179  and  _180
REMARK   72  A    between atoms: _182  and  _184
REMARK   73  A    between atoms: _184  and  _185
REMARK   74  A    between atoms: _184  and  _187
REMARK   75  A    between atoms: _187  and  _188
REMARK   76  A    between atoms: _190  and  _192
REMARK   77  A    between atoms: _192  and  _193
REMARK   78  A    between atoms: _192  and  _195
REMARK   79  A    between atoms: _198  and  _200
REMARK   80  A    between atoms: _200  and  _201
REMARK   81  A    between atoms: _200  and  _203
REMARK   82  A    between atoms: _203  and  _204
REMARK   83  A    between atoms: _206  and  _208
REMARK   84  A    between atoms: _208  and  _209
REMARK   85  A    between atoms: _208  and  _211
REMARK   86  A    between atoms: _211  and  _212
REMARK   87  A    between atoms: _214  and  _216
REMARK   88  A    between atoms: _216  and  _217
REMARK   89  A    between atoms: _216  and  _219
REMARK   90  A    between atoms: _219  and  _220
REMARK   91  A    between atoms: _220  and  _221
REMARK   92  A    between atoms: _226  and  _228
REMARK   93  A    between atoms: _228  and  _229
REMARK   94  A    between atoms: _228  and  _231
REMARK   95  A    between atoms: _231  and  _232
REMARK   96  A    between atoms: _238  and  _240
REMARK   97  A    between atoms: _240  and  _241
REMARK   98  A    between atoms: _240  and  _243
REMARK   99  A    between atoms: _243  and  _244
REMARK  100  A    between atoms: _247  and  _249
REMARK  101  A    between atoms: _249  and  _250
REMARK  102  A    between atoms: _249  and  _252
REMARK  103  A    between atoms: _252  and  _253
REMARK  104  A    between atoms: _256  and  _258
REMARK  105  A    between atoms: _258  and  _259
REMARK  106  A    between atoms: _262  and  _264
REMARK  107  A    between atoms: _264  and  _265
REMARK  108  A    between atoms: _264  and  _267
REMARK  109  A    between atoms: _267  and  _268
REMARK  110  A    between atoms: _268  and  _269
REMARK  111  A    between atoms: _271  and  _273
REMARK  112  A    between atoms: _273  and  _274
REMARK  113  A    between atoms: _273  and  _276
REMARK  114  A    between atoms: _276  and  _277
REMARK  115  A    between atoms: _280  and  _282
REMARK  116  A    between atoms: _282  and  _283
REMARK  117  A    between atoms: _282  and  _285
REMARK  118  A    between atoms: _288  and  _290
REMARK  119  A    between atoms: _290  and  _291
REMARK  120  A    between atoms: _290  and  _293
REMARK  121  A    between atoms: _293  and  _294
REMARK  122  A    between atoms: _296  and  _298
REMARK  123  A    between atoms: _298  and  _299
REMARK  124  A    between atoms: _298  and  _301
REMARK  125  A    between atoms: _301  and  _302
REMARK  126  A    between atoms: _302  and  _303
REMARK  127  A    between atoms: _303  and  _304
REMARK  128  A    between atoms: _304  and  _305
REMARK  129  A    between atoms: _310  and  _311
REMARK  130  A    between atoms: _316  and  _318
REMARK  131  A    between atoms: _318  and  _319
REMARK  132  A    between atoms: _318  and  _321
REMARK  133  A    between atoms: _321  and  _322
REMARK  134  A    between atoms: _327  and  _328
REMARK  135  A    between atoms: _330  and  _332
REMARK  136  A    between atoms: _332  and  _333
REMARK  137  A    between atoms: _332  and  _335
REMARK  138  A    between atoms: _335  and  _336
REMARK  139  A    between atoms: _339  and  _341
REMARK  140  A    between atoms: _341  and  _342
REMARK  141  A    between atoms: _341  and  _344
REMARK  142  A    between atoms: _344  and  _345
REMARK  143  A    between atoms: _348  and  _350
REMARK  144  A    between atoms: _350  and  _351
REMARK  145  A    between atoms: _350  and  _353
REMARK  146  A    between atoms: _353  and  _354
REMARK  147  A    between atoms: _357  and  _359
REMARK  148  A    between atoms: _359  and  _360
REMARK  149  A    between atoms: _359  and  _362
REMARK  150  A    between atoms: _362  and  _363
REMARK  151  A    between atoms: _366  and  _368
REMARK  152  A    between atoms: _368  and  _369
REMARK  153  A    between atoms: _368  and  _371
REMARK  154  A    between atoms: _371  and  _372
REMARK  155  A    between atoms: _374  and  _376
REMARK  156  A    between atoms: _376  and  _377
REMARK  157  A    between atoms: _376  and  _379
REMARK  158  A    between atoms: _379  and  _380
REMARK  159  A    between atoms: _385  and  _386
REMARK  160  A    between atoms: _388  and  _390
REMARK  161  A    between atoms: _390  and  _391
REMARK  162  A    between atoms: _390  and  _393
REMARK  163  A    between atoms: _393  and  _394
REMARK  164  A    between atoms: _397  and  _399
REMARK  165  A    between atoms: _399  and  _400
REMARK  166  A    between atoms: _399  and  _402
REMARK  167  A    between atoms: _402  and  _403
REMARK  168  A    between atoms: _408  and  _410
REMARK  169  A    between atoms: _410  and  _411
REMARK  170  A    between atoms: _410  and  _413
REMARK  171  A    between atoms: _413  and  _414
REMARK  172  A    between atoms: _418  and  _419
REMARK  173  A    between atoms: _424  and  _426
REMARK  174  A    between atoms: _426  and  _427
REMARK  175  A    between atoms: _426  and  _429
REMARK  176  A    between atoms: _429  and  _430
REMARK  177  A    between atoms: _433  and  _435
REMARK  178  A    between atoms: _435  and  _436
REMARK  179  A    between atoms: _439  and  _441
REMARK  180  A    between atoms: _441  and  _442
REMARK  181  A    between atoms: _441  and  _444
REMARK  182  A    between atoms: _444  and  _445
REMARK  183  A    between atoms: _445  and  _446
REMARK  184  A    between atoms: _448  and  _450
REMARK  185  A    between atoms: _450  and  _451
REMARK  186  A    between atoms: _450  and  _453
REMARK  187  A    between atoms: _453  and  _454
REMARK  188  A    between atoms: _459  and  _461
REMARK  189  A    between atoms: _461  and  _462
REMARK  190  A    between atoms: _461  and  _464
REMARK  191  A    between atoms: _464  and  _465
REMARK  192  A    between atoms: _475  and  _477
REMARK  193  A    between atoms: _477  and  _478
REMARK  194  A    between atoms: _477  and  _480
REMARK  195  A    between atoms: _483  and  _485
REMARK  196  A    between atoms: _485  and  _486
REMARK  197  A    between atoms: _485  and  _488
REMARK  198  A    between atoms: _488  and  _489
REMARK  199  A    between atoms: _489  and  _490
REMARK  200  A    between atoms: _490  and  _491
REMARK  201  A    between atoms: _491  and  _492
REMARK  202  A    between atoms: _496  and  _498
REMARK  203  A    between atoms: _498  and  _499
REMARK  204  A    between atoms: _498  and  _501
REMARK  205  A    between atoms: _501  and  _502
REMARK  206  A    between atoms: _502  and  _503
REMARK  207  A    between atoms: _506  and  _508
REMARK  208  A    between atoms: _508  and  _509
REMARK  209  A    between atoms: _508  and  _511
REMARK  210  A    between atoms: _511  and  _512
REMARK  211  A    between atoms: _515  and  _517
REMARK  212  A    between atoms: _517  and  _518
REMARK  213  A    between atoms: _517  and  _520
REMARK  214  A    between atoms: _520  and  _521
REMARK  215  A    between atoms: _521  and  _522
REMARK  216  A    between atoms: _522  and  _523
REMARK  217  A    between atoms: _532  and  _534
REMARK  218  A    between atoms: _534  and  _535
REMARK  219  A    between atoms: _534  and  _537
REMARK  220  A    between atoms: _537  and  _538
REMARK  221  A    between atoms: _543  and  _545
REMARK  222  A    between atoms: _545  and  _546
REMARK  223  A    between atoms: _545  and  _548
REMARK  224  A    between atoms: _548  and  _549
REMARK  225  A    between atoms: _552  and  _554
REMARK  226  A    between atoms: _554  and  _555
REMARK  227  A    between atoms: _554  and  _557
REMARK  228  A    between atoms: _557  and  _558
REMARK  229  A    between atoms: _563  and  _565
REMARK  230  A    between atoms: _565  and  _566
REMARK  231  A    between atoms: _565  and  _568
REMARK  232  A    between atoms: _568  and  _569
REMARK  233  A    between atoms: _569  and  _570
REMARK  234  A    between atoms: _570  and  _571
REMARK  235  A    between atoms: _580  and  _582
REMARK  236  A    between atoms: _582  and  _583
REMARK  237  A    between atoms: _582  and  _585
REMARK  238  A    between atoms: _585  and  _586
REMARK  239  A    between atoms: _586  and  _587
REMARK  240  A    between atoms: _589  and  _591
REMARK  241  A    between atoms: _591  and  _592
REMARK  242  A    between atoms: _591  and  _594
REMARK  243  A    between atoms: _594  and  _595
REMARK  244  A    between atoms: _595  and  _596
REMARK  245  A    between atoms: _598  and  _600
REMARK  246  A    between atoms: _600  and  _601
REMARK  247  A    between atoms: _600  and  _603
REMARK  248  A    between atoms: _603  and  _604
REMARK  249  A    between atoms: _604  and  _605
REMARK  250  A    between atoms: _605  and  _606
REMARK  251  A    between atoms: _606  and  _607
REMARK  252  A    between atoms: _611  and  _613
REMARK  253  A    between atoms: _613  and  _614
REMARK  254  A    between atoms: _613  and  _616
REMARK  255  A    between atoms: _616  and  _617
REMARK                            x       y       z     vdW  Elec       q    Type
REMARK                         _______ _______ _______ _____ _____    ______ ____
ROOT
ATOM      1  O   HOH     1      59.097  16.746  32.077  0.00  0.00    +0.000 OA
ENDROOT
TORSDOF 0
REMARK  Name = ../refined-set-2016/1x8t/1x8t_pocket.pdb
REMARK  255 active torsions:
REMARK  status: ('A' for Active; 'I' for Inactive)
REMARK    1  A    between atoms: _1  and  _3
REMARK    2  A    between atoms: _3  and  _4
REMARK    3  A    between atoms: _3  and  _6
REMARK    4  A    between atoms: _6  and  _7
REMARK    5  A    between atoms: _9  and  _11
REMARK    6  A    between atoms: _11  and  _12
REMARK    7  A    between atoms: _11  and  _14
REMARK    8  A    between atoms: _14  and  _15
REMARK    9  A    between atoms: _15  and  _16
REMARK   10  A    between atoms: _16  and  _17
REMARK   11  A    between atoms: _17  and  _18
REMARK   12  A    between atoms: _22  and  _24
REMARK   13  A    between atoms: _24  and  _25
REMARK   14  A    between atoms: _24  and  _27
REMARK   15  A    between atoms: _27  and  _28
REMARK   16  A    between atoms: _30  and  _32
REMARK   17  A    between atoms: _32  and  _33
REMARK   18  A    between atoms: _32  and  _35
REMARK   19  A    between atoms: _38  and  _40
REMARK   20  A    between atoms: _40  and  _41
REMARK   21  A    between atoms: _40  and  _43
REMARK   22  A    between atoms: _43  and  _44
REMARK   23  A    between atoms: _46  and  _48
REMARK   24  A    between atoms: _48  and  _49
REMARK   25  A    between atoms: _48  and  _51
REMARK   26  A    between atoms: _51  and  _52
REMARK   27  A    between atoms: _57  and  _59
REMARK   28  A    between atoms: _59  and  _60
REMARK   29  A    between atoms: _59  and  _62
REMARK   30  A    between atoms: _62  and  _63
REMARK   31  A    between atoms: _63  and  _64
REMARK   32  A    between atoms: _64  and  _65
REMARK   33  A    between atoms: _74  and  _76
REMARK   34  A    between atoms: _76  and  _77
REMARK   35  A    between atoms: _76  and  _79
REMARK   36  A    between atoms: _79  and  _80
REMARK   37  A    between atoms: _83  and  _85
REMARK   38  A    between atoms: _85  and  _86
REMARK   39  A    between atoms: _85  and  _88
REMARK   40  A    between atoms: _88  and  _89
REMARK   41  A    between atoms: _94  and  _96
REMARK   42  A    between atoms: _96  and  _97
REMARK   43  A    between atoms: _100  and  _102
REMARK   44  A    between atoms: _102  and  _103
REMARK   45  A    between atoms: _105  and  _107
REMARK   46  A    between atoms: _107  and  _108
REMARK   47  A    between atoms: _107  and  _110
REMARK   48  A    between atoms: _110  and  _111
REMARK   49  A    between atoms: _114  and  _116
REMARK   50  A    between atoms: _116  and  _117
REMARK   51  A    between atoms: _120  and  _122
REMARK   52  A    between atoms: _122  and  _123
REMARK   53  A    between atoms: _122  and  _125
REMARK   54  A    between atoms: _125  and  _126
REMARK   55  A    between atoms: _126  and  _127
REMARK   56  A    between atoms: _129  and  _131
REMARK   57  A    between atoms: _131  and  _132
REMARK   58  A    between atoms: _131  and  _134
REMARK   59  A    between atoms: _134  and  _135
REMARK   60  A    between atoms: _135  and  _136
REMARK   61  A    between atoms: _136  and  _137
REMARK   62  A    between atoms: _147  and  _148
REMARK   63  A    between atoms: _153  and  _155
REMARK   64  A    between atoms: _155  and  _156
REMARK   65  A    between atoms: _155  and  _158
REMARK   66  A    between atoms: _158  and  _159
REMARK   67  A    between atoms: _159  and  _160
REMARK   68  A    between atoms: _160  and  _161
REMARK   69  A    between atoms: _171  and  _172
REMARK   70  A    between atoms: _177  and  _179
REMARK   71  A    between atoms: _179  and  _180
REMARK   72  A    between atoms: _182  and  _184
REMARK   73  A    between atoms: _184  and  _185
REMARK   74  A    between atoms: _184  and  _187
REMARK   75  A    between atoms: _187  and  _188
REMARK   76  A    between atoms: _190  and  _192
REMARK   77  A    between atoms: _192  and  _193
REMARK   78  A    between atoms: _192  and  _195
REMARK   79  A    between atoms: _198  and  _200
REMARK   80  A    between atoms: _200  and  _201
REMARK   81  A    between atoms: _200  and  _203
REMARK   82  A    between atoms: _203  and  _204
REMARK   83  A    between atoms: _206  and  _208
REMARK   84  A    between atoms: _208  and  _209
REMARK   85  A    between atoms: _208  and  _211
REMARK   86  A    between atoms: _211  and  _212
REMARK   87  A    between atoms: _214  and  _216
REMARK   88  A    between atoms: _216  and  _217
REMARK   89  A    between atoms: _216  and  _219
REMARK   90  A    between atoms: _219  and  _220
REMARK   91  A    between atoms: _220  and  _221
REMARK   92  A    between atoms: _226  and  _228
REMARK   93  A    between atoms: _228  and  _229
REMARK   94  A    between atoms: _228  and  _231
REMARK   95  A    between atoms: _231  and  _232
REMARK   96  A    between atoms: _238  and  _240
REMARK   97  A    between atoms: _240  and  _241
REMARK   98  A    between atoms: _240  and  _243
REMARK   99  A    between atoms: _243  and  _244
REMARK  100  A    between atoms: _247  and  _249
REMARK  101  A    between atoms: _249  and  _250
REMARK  102  A    between atoms: _249  and  _252
REMARK  103  A    between atoms: _252  and  _253
REMARK  104  A    between atoms: _256  and  _258
REMARK  105  A    between atoms: _258  and  _259
REMARK  106  A    between atoms: _262  and  _264
REMARK  107  A    between atoms: _264  and  _265
REMARK  108  A    between atoms: _264  and  _267
REMARK  109  A    between atoms: _267  and  _268
REMARK  110  A    between atoms: _268  and  _269
REMARK  111  A    between atoms: _271  and  _273
REMARK  112  A    between atoms: _273  and  _274
REMARK  113  A    between atoms: _273  and  _276
REMARK  114  A    between atoms: _276  and  _277
REMARK  115  A    between atoms: _280  and  _282
REMARK  116  A    between atoms: _282  and  _283
REMARK  117  A    between atoms: _282  and  _285
REMARK  118  A    between atoms: _288  and  _290
REMARK  119  A    between atoms: _290  and  _291
REMARK  120  A    between atoms: _290  and  _293
REMARK  121  A    between atoms: _293  and  _294
REMARK  122  A    between atoms: _296  and  _298
REMARK  123  A    between atoms: _298  and  _299
REMARK  124  A    between atoms: _298  and  _301
REMARK  125  A    between atoms: _301  and  _302
REMARK  126  A    between atoms: _302  and  _303
REMARK  127  A    between atoms: _303  and  _304
REMARK  128  A    between atoms: _304  and  _305
REMARK  129  A    between atoms: _310  and  _311
REMARK  130  A    between atoms: _316  and  _318
REMARK  131  A    between atoms: _318  and  _319
REMARK  132  A    between atoms: _318  and  _321
REMARK  133  A    between atoms: _321  and  _322
REMARK  134  A    between atoms: _327  and  _328
REMARK  135  A    between atoms: _330  and  _332
REMARK  136  A    between atoms: _332  and  _333
REMARK  137  A    between atoms: _332  and  _335
REMARK  138  A    between atoms: _335  and  _336
REMARK  139  A    between atoms: _339  and  _341
REMARK  140  A    between atoms: _341  and  _342
REMARK  141  A    between atoms: _341  and  _344
REMARK  142  A    between atoms: _344  and  _345
REMARK  143  A    between atoms: _348  and  _350
REMARK  144  A    between atoms: _350  and  _351
REMARK  145  A    between atoms: _350  and  _353
REMARK  146  A    between atoms: _353  and  _354
REMARK  147  A    between atoms: _357  and  _359
REMARK  148  A    between atoms: _359  and  _360
REMARK  149  A    between atoms: _359  and  _362
REMARK  150  A    between atoms: _362  and  _363
REMARK  151  A    between atoms: _366  and  _368
REMARK  152  A    between atoms: _368  and  _369
REMARK  153  A    between atoms: _368  and  _371
REMARK  154  A    between atoms: _371  and  _372
REMARK  155  A    between atoms: _374  and  _376
REMARK  156  A    between atoms: _376  and  _377
REMARK  157  A    between atoms: _376  and  _379
REMARK  158  A    between atoms: _379  and  _380
REMARK  159  A    between atoms: _385  and  _386
REMARK  160  A    between atoms: _388  and  _390
REMARK  161  A    between atoms: _390  and  _391
REMARK  162  A    between atoms: _390  and  _393
REMARK  163  A    between atoms: _393  and  _394
REMARK  164  A    between atoms: _397  and  _399
REMARK  165  A    between atoms: _399  and  _400
REMARK  166  A    between atoms: _399  and  _402
REMARK  167  A    between atoms: _402  and  _403
REMARK  168  A    between atoms: _408  and  _410
REMARK  169  A    between atoms: _410  and  _411
REMARK  170  A    between atoms: _410  and  _413
REMARK  171  A    between atoms: _413  and  _414
REMARK  172  A    between atoms: _418  and  _419
REMARK  173  A    between atoms: _424  and  _426
REMARK  174  A    between atoms: _426  and  _427
REMARK  175  A    between atoms: _426  and  _429
REMARK  176  A    between atoms: _429  and  _430
REMARK  177  A    between atoms: _433  and  _435
REMARK  178  A    between atoms: _435  and  _436
REMARK  179  A    between atoms: _439  and  _441
REMARK  180  A    between atoms: _441  and  _442
REMARK  181  A    between atoms: _441  and  _444
REMARK  182  A    between atoms: _444  and  _445
REMARK  183  A    between atoms: _445  and  _446
REMARK  184  A    between atoms: _448  and  _450
REMARK  185  A    between atoms: _450  and  _451
REMARK  186  A    between atoms: _450  and  _453
REMARK  187  A    between atoms: _453  and  _454
REMARK  188  A    between atoms: _459  and  _461
REMARK  189  A    between atoms: _461  and  _462
REMARK  190  A    between atoms: _461  and  _464
REMARK  191  A    between atoms: _464  and  _465
REMARK  192  A    between atoms: _475  and  _477
REMARK  193  A    between atoms: _477  and  _478
REMARK  194  A    between atoms: _477  and  _480
REMARK  195  A    between atoms: _483  and  _485
REMARK  196  A    between atoms: _485  and  _486
REMARK  197  A    between atoms: _485  and  _488
REMARK  198  A    between atoms: _488  and  _489
REMARK  199  A    between atoms: _489  and  _490
REMARK  200  A    between atoms: _490  and  _491
REMARK  201  A    between atoms: _491  and  _492
REMARK  202  A    between atoms: _496  and  _498
REMARK  203  A    between atoms: _498  and  _499
REMARK  204  A    between atoms: _498  and  _501
REMARK  205  A    between atoms: _501  and  _502
REMARK  206  A    between atoms: _502  and  _503
REMARK  207  A    between atoms: _506  and  _508
REMARK  208  A    between atoms: _508  and  _509
REMARK  209  A    between atoms: _508  and  _511
REMARK  210  A    between atoms: _511  and  _512
REMARK  211  A    between atoms: _515  and  _517
REMARK  212  A    between atoms: _517  and  _518
REMARK  213  A    between atoms: _517  and  _520
REMARK  214  A    between atoms: _520  and  _521
REMARK  215  A    between atoms: _521  and  _522
REMARK  216  A    between atoms: _522  and  _523
REMARK  217  A    between atoms: _532  and  _534
REMARK  218  A    between atoms: _534  and  _535
REMARK  219  A    between atoms: _534  and  _537
REMARK  220  A    between atoms: _537  and  _538
REMARK  221  A    between atoms: _543  and  _545
REMARK  222  A    between atoms: _545  and  _546
REMARK  223  A    between atoms: _545  and  _548
REMARK  224  A    between atoms: _548  and  _549
REMARK  225  A    between atoms: _552  and  _554
REMARK  226  A    between atoms: _554  and  _555
REMARK  227  A    between atoms: _554  and  _557
REMARK  228  A    between atoms: _557  and  _558
REMARK  229  A    between atoms: _563  and  _565
REMARK  230  A    between atoms: _565  and  _566
REMARK  231  A    between atoms: _565  and  _568
REMARK  232  A    between atoms: _568  and  _569
REMARK  233  A    between atoms: _569  and  _570
REMARK  234  A    between atoms: _570  and  _571
REMARK  235  A    between atoms: _580  and  _582
REMARK  236  A    between atoms: _582  and  _583
REMARK  237  A    between atoms: _582  and  _585
REMARK  238  A    between atoms: _585  and  _586
REMARK  239  A    between atoms: _586  and  _587
REMARK  240  A    between atoms: _589  and  _591
REMARK  241  A    between atoms: _591  and  _592
REMARK  242  A    between atoms: _591  and  _594
REMARK  243  A    between atoms: _594  and  _595
REMARK  244  A    between atoms: _595  and  _596
REMARK  245  A    between atoms: _598  and  _600
REMARK  246  A    between atoms: _600  and  _601
REMARK  247  A    between atoms: _600  and  _603
REMARK  248  A    between atoms: _603  and  _604
REMARK  249  A    between atoms: _604  and  _605
REMARK  250  A    between atoms: _605  and  _606
REMARK  251  A    between atoms: _606  and  _607
REMARK  252  A    between atoms: _611  and  _613
REMARK  253  A    between atoms: _613  and  _614
REMARK  254  A    between atoms: _613  and  _616
REMARK  255  A    between atoms: _616  and  _617
REMARK                            x       y       z     vdW  Elec       q    Type
REMARK                         _______ _______ _______ _____ _____    ______ ____
ROOT
ATOM      1  O   HOH     1      51.528  13.402  34.767  0.00  0.00    +0.000 OA
ENDROOT
TORSDOF 0
REMARK  Name = ../refined-set-2016/1x8t/1x8t_pocket.pdb
REMARK  255 active torsions:
REMARK  status: ('A' for Active; 'I' for Inactive)
REMARK    1  A    between atoms: _1  and  _3
REMARK    2  A    between atoms: _3  and  _4
REMARK    3  A    between atoms: _3  and  _6
REMARK    4  A    between atoms: _6  and  _7
REMARK    5  A    between atoms: _9  and  _11
REMARK    6  A    between atoms: _11  and  _12
REMARK    7  A    between atoms: _11  and  _14
REMARK    8  A    between atoms: _14  and  _15
REMARK    9  A    between atoms: _15  and  _16
REMARK   10  A    between atoms: _16  and  _17
REMARK   11  A    between atoms: _17  and  _18
REMARK   12  A    between atoms: _22  and  _24
REMARK   13  A    between atoms: _24  and  _25
REMARK   14  A    between atoms: _24  and  _27
REMARK   15  A    between atoms: _27  and  _28
REMARK   16  A    between atoms: _30  and  _32
REMARK   17  A    between atoms: _32  and  _33
REMARK   18  A    between atoms: _32  and  _35
REMARK   19  A    between atoms: _38  and  _40
REMARK   20  A    between atoms: _40  and  _41
REMARK   21  A    between atoms: _40  and  _43
REMARK   22  A    between atoms: _43  and  _44
REMARK   23  A    between atoms: _46  and  _48
REMARK   24  A    between atoms: _48  and  _49
REMARK   25  A    between atoms: _48  and  _51
REMARK   26  A    between atoms: _51  and  _52
REMARK   27  A    between atoms: _57  and  _59
REMARK   28  A    between atoms: _59  and  _60
REMARK   29  A    between atoms: _59  and  _62
REMARK   30  A    between atoms: _62  and  _63
REMARK   31  A    between atoms: _63  and  _64
REMARK   32  A    between atoms: _64  and  _65
REMARK   33  A    between atoms: _74  and  _76
REMARK   34  A    between atoms: _76  and  _77
REMARK   35  A    between atoms: _76  and  _79
REMARK   36  A    between atoms: _79  and  _80
REMARK   37  A    between atoms: _83  and  _85
REMARK   38  A    between atoms: _85  and  _86
REMARK   39  A    between atoms: _85  and  _88
REMARK   40  A    between atoms: _88  and  _89
REMARK   41  A    between atoms: _94  and  _96
REMARK   42  A    between atoms: _96  and  _97
REMARK   43  A    between atoms: _100  and  _102
REMARK   44  A    between atoms: _102  and  _103
REMARK   45  A    between atoms: _105  and  _107
REMARK   46  A    between atoms: _107  and  _108
REMARK   47  A    between atoms: _107  and  _110
REMARK   48  A    between atoms: _110  and  _111
REMARK   49  A    between atoms: _114  and  _116
REMARK   50  A    between atoms: _116  and  _117
REMARK   51  A    between atoms: _120  and  _122
REMARK   52  A    between atoms: _122  and  _123
REMARK   53  A    between atoms: _122  and  _125
REMARK   54  A    between atoms: _125  and  _126
REMARK   55  A    between atoms: _126  and  _127
REMARK   56  A    between atoms: _129  and  _131
REMARK   57  A    between atoms: _131  and  _132
REMARK   58  A    between atoms: _131  and  _134
REMARK   59  A    between atoms: _134  and  _135
REMARK   60  A    between atoms: _135  and  _136
REMARK   61  A    between atoms: _136  and  _137
REMARK   62  A    between atoms: _147  and  _148
REMARK   63  A    between atoms: _153  and  _155
REMARK   64  A    between atoms: _155  and  _156
REMARK   65  A    between atoms: _155  and  _158
REMARK   66  A    between atoms: _158  and  _159
REMARK   67  A    between atoms: _159  and  _160
REMARK   68  A    between atoms: _160  and  _161
REMARK   69  A    between atoms: _171  and  _172
REMARK   70  A    between atoms: _177  and  _179
REMARK   71  A    between atoms: _179  and  _180
REMARK   72  A    between atoms: _182  and  _184
REMARK   73  A    between atoms: _184  and  _185
REMARK   74  A    between atoms: _184  and  _187
REMARK   75  A    between atoms: _187  and  _188
REMARK   76  A    between atoms: _190  and  _192
REMARK   77  A    between atoms: _192  and  _193
REMARK   78  A    between atoms: _192  and  _195
REMARK   79  A    between atoms: _198  and  _200
REMARK   80  A    between atoms: _200  and  _201
REMARK   81  A    between atoms: _200  and  _203
REMARK   82  A    between atoms: _203  and  _204
REMARK   83  A    between atoms: _206  and  _208
REMARK   84  A    between atoms: _208  and  _209
REMARK   85  A    between atoms: _208  and  _211
REMARK   86  A    between atoms: _211  and  _212
REMARK   87  A    between atoms: _214  and  _216
REMARK   88  A    between atoms: _216  and  _217
REMARK   89  A    between atoms: _216  and  _219
REMARK   90  A    between atoms: _219  and  _220
REMARK   91  A    between atoms: _220  and  _221
REMARK   92  A    between atoms: _226  and  _228
REMARK   93  A    between atoms: _228  and  _229
REMARK   94  A    between atoms: _228  and  _231
REMARK   95  A    between atoms: _231  and  _232
REMARK   96  A    between atoms: _238  and  _240
REMARK   97  A    between atoms: _240  and  _241
REMARK   98  A    between atoms: _240  and  _243
REMARK   99  A    between atoms: _243  and  _244
REMARK  100  A    between atoms: _247  and  _249
REMARK  101  A    between atoms: _249  and  _250
REMARK  102  A    between atoms: _249  and  _252
REMARK  103  A    between atoms: _252  and  _253
REMARK  104  A    between atoms: _256  and  _258
REMARK  105  A    between atoms: _258  and  _259
REMARK  106  A    between atoms: _262  and  _264
REMARK  107  A    between atoms: _264  and  _265
REMARK  108  A    between atoms: _264  and  _267
REMARK  109  A    between atoms: _267  and  _268
REMARK  110  A    between atoms: _268  and  _269
REMARK  111  A    between atoms: _271  and  _273
REMARK  112  A    between atoms: _273  and  _274
REMARK  113  A    between atoms: _273  and  _276
REMARK  114  A    between atoms: _276  and  _277
REMARK  115  A    between atoms: _280  and  _282
REMARK  116  A    between atoms: _282  and  _283
REMARK  117  A    between atoms: _282  and  _285
REMARK  118  A    between atoms: _288  and  _290
REMARK  119  A    between atoms: _290  and  _291
REMARK  120  A    between atoms: _290  and  _293
REMARK  121  A    between atoms: _293  and  _294
REMARK  122  A    between atoms: _296  and  _298
REMARK  123  A    between atoms: _298  and  _299
REMARK  124  A    between atoms: _298  and  _301
REMARK  125  A    between atoms: _301  and  _302
REMARK  126  A    between atoms: _302  and  _303
REMARK  127  A    between atoms: _303  and  _304
REMARK  128  A    between atoms: _304  and  _305
REMARK  129  A    between atoms: _310  and  _311
REMARK  130  A    between atoms: _316  and  _318
REMARK  131  A    between atoms: _318  and  _319
REMARK  132  A    between atoms: _318  and  _321
REMARK  133  A    between atoms: _321  and  _322
REMARK  134  A    between atoms: _327  and  _328
REMARK  135  A    between atoms: _330  and  _332
REMARK  136  A    between atoms: _332  and  _333
REMARK  137  A    between atoms: _332  and  _335
REMARK  138  A    between atoms: _335  and  _336
REMARK  139  A    between atoms: _339  and  _341
REMARK  140  A    between atoms: _341  and  _342
REMARK  141  A    between atoms: _341  and  _344
REMARK  142  A    between atoms: _344  and  _345
REMARK  143  A    between atoms: _348  and  _350
REMARK  144  A    between atoms: _350  and  _351
REMARK  145  A    between atoms: _350  and  _353
REMARK  146  A    between atoms: _353  and  _354
REMARK  147  A    between atoms: _357  and  _359
REMARK  148  A    between atoms: _359  and  _360
REMARK  149  A    between atoms: _359  and  _362
REMARK  150  A    between atoms: _362  and  _363
REMARK  151  A    between atoms: _366  and  _368
REMARK  152  A    between atoms: _368  and  _369
REMARK  153  A    between atoms: _368  and  _371
REMARK  154  A    between atoms: _371  and  _372
REMARK  155  A    between atoms: _374  and  _376
REMARK  156  A    between atoms: _376  and  _377
REMARK  157  A    between atoms: _376  and  _379
REMARK  158  A    between atoms: _379  and  _380
REMARK  159  A    between atoms: _385  and  _386
REMARK  160  A    between atoms: _388  and  _390
REMARK  161  A    between atoms: _390  and  _391
REMARK  162  A    between atoms: _390  and  _393
REMARK  163  A    between atoms: _393  and  _394
REMARK  164  A    between atoms: _397  and  _399
REMARK  165  A    between atoms: _399  and  _400
REMARK  166  A    between atoms: _399  and  _402
REMARK  167  A    between atoms: _402  and  _403
REMARK  168  A    between atoms: _408  and  _410
REMARK  169  A    between atoms: _410  and  _411
REMARK  170  A    between atoms: _410  and  _413
REMARK  171  A    between atoms: _413  and  _414
REMARK  172  A    between atoms: _418  and  _419
REMARK  173  A    between atoms: _424  and  _426
REMARK  174  A    between atoms: _426  and  _427
REMARK  175  A    between atoms: _426  and  _429
REMARK  176  A    between atoms: _429  and  _430
REMARK  177  A    between atoms: _433  and  _435
REMARK  178  A    between atoms: _435  and  _436
REMARK  179  A    between atoms: _439  and  _441
REMARK  180  A    between atoms: _441  and  _442
REMARK  181  A    between atoms: _441  and  _444
REMARK  182  A    between atoms: _444  and  _445
REMARK  183  A    between atoms: _445  and  _446
REMARK  184  A    between atoms: _448  and  _450
REMARK  185  A    between atoms: _450  and  _451
REMARK  186  A    between atoms: _450  and  _453
REMARK  187  A    between atoms: _453  and  _454
REMARK  188  A    between atoms: _459  and  _461
REMARK  189  A    between atoms: _461  and  _462
REMARK  190  A    between atoms: _461  and  _464
REMARK  191  A    between atoms: _464  and  _465
REMARK  192  A    between atoms: _475  and  _477
REMARK  193  A    between atoms: _477  and  _478
REMARK  194  A    between atoms: _477  and  _480
REMARK  195  A    between atoms: _483  and  _485
REMARK  196  A    between atoms: _485  and  _486
REMARK  197  A    between atoms: _485  and  _488
REMARK  198  A    between atoms: _488  and  _489
REMARK  199  A    between atoms: _489  and  _490
REMARK  200  A    between atoms: _490  and  _491
REMARK  201  A    between atoms: _491  and  _492
REMARK  202  A    between atoms: _496  and  _498
REMARK  203  A    between atoms: _498  and  _499
REMARK  204  A    between atoms: _498  and  _501
REMARK  205  A    between atoms: _501  and  _502
REMARK  206  A    between atoms: _502  and  _503
REMARK  207  A    between atoms: _506  and  _508
REMARK  208  A    between atoms: _508  and  _509
REMARK  209  A    between atoms: _508  and  _511
REMARK  210  A    between atoms: _511  and  _512
REMARK  211  A    between atoms: _515  and  _517
REMARK  212  A    between atoms: _517  and  _518
REMARK  213  A    between atoms: _517  and  _520
REMARK  214  A    between atoms: _520  and  _521
REMARK  215  A    between atoms: _521  and  _522
REMARK  216  A    between atoms: _522  and  _523
REMARK  217  A    between atoms: _532  and  _534
REMARK  218  A    between atoms: _534  and  _535
REMARK  219  A    between atoms: _534  and  _537
REMARK  220  A    between atoms: _537  and  _538
REMARK  221  A    between atoms: _543  and  _545
REMARK  222  A    between atoms: _545  and  _546
REMARK  223  A    between atoms: _545  and  _548
REMARK  224  A    between atoms: _548  and  _549
REMARK  225  A    between atoms: _552  and  _554
REMARK  226  A    between atoms: _554  and  _555
REMARK  227  A    between atoms: _554  and  _557
REMARK  228  A    between atoms: _557  and  _558
REMARK  229  A    between atoms: _563  and  _565
REMARK  230  A    between atoms: _565  and  _566
REMARK  231  A    between atoms: _565  and  _568
REMARK  232  A    between atoms: _568  and  _569
REMARK  233  A    between atoms: _569  and  _570
REMARK  234  A    between atoms: _570  and  _571
REMARK  235  A    between atoms: _580  and  _582
REMARK  236  A    between atoms: _582  and  _583
REMARK  237  A    between atoms: _582  and  _585
REMARK  238  A    between atoms: _585  and  _586
REMARK  239  A    between atoms: _586  and  _587
REMARK  240  A    between atoms: _589  and  _591
REMARK  241  A    between atoms: _591  and  _592
REMARK  242  A    between atoms: _591  and  _594
REMARK  243  A    between atoms: _594  and  _595
REMARK  244  A    between atoms: _595  and  _596
REMARK  245  A    between atoms: _598  and  _600
REMARK  246  A    between atoms: _600  and  _601
REMARK  247  A    between atoms: _600  and  _603
REMARK  248  A    between atoms: _603  and  _604
REMARK  249  A    between atoms: _604  and  _605
REMARK  250  A    between atoms: _605  and  _606
REMARK  251  A    between atoms: _606  and  _607
REMARK  252  A    between atoms: _611  and  _613
REMARK  253  A    between atoms: _613  and  _614
REMARK  254  A    between atoms: _613  and  _616
REMARK  255  A    between atoms: _616  and  _617
REMARK                            x       y       z     vdW  Elec       q    Type
REMARK                         _______ _______ _______ _____ _____    ______ ____
ROOT
ATOM      1  O   HOH     1      51.989  15.120  32.711  0.00  0.00    +0.000 OA
ENDROOT
TORSDOF 0
REMARK  Name = ../refined-set-2016/1x8t/1x8t_pocket.pdb
REMARK  255 active torsions:
REMARK  status: ('A' for Active; 'I' for Inactive)
REMARK    1  A    between atoms: _1  and  _3
REMARK    2  A    between atoms: _3  and  _4
REMARK    3  A    between atoms: _3  and  _6
REMARK    4  A    between atoms: _6  and  _7
REMARK    5  A    between atoms: _9  and  _11
REMARK    6  A    between atoms: _11  and  _12
REMARK    7  A    between atoms: _11  and  _14
REMARK    8  A    between atoms: _14  and  _15
REMARK    9  A    between atoms: _15  and  _16
REMARK   10  A    between atoms: _16  and  _17
REMARK   11  A    between atoms: _17  and  _18
REMARK   12  A    between atoms: _22  and  _24
REMARK   13  A    between atoms: _24  and  _25
REMARK   14  A    between atoms: _24  and  _27
REMARK   15  A    between atoms: _27  and  _28
REMARK   16  A    between atoms: _30  and  _32
REMARK   17  A    between atoms: _32  and  _33
REMARK   18  A    between atoms: _32  and  _35
REMARK   19  A    between atoms: _38  and  _40
REMARK   20  A    between atoms: _40  and  _41
REMARK   21  A    between atoms: _40  and  _43
REMARK   22  A    between atoms: _43  and  _44
REMARK   23  A    between atoms: _46  and  _48
REMARK   24  A    between atoms: _48  and  _49
REMARK   25  A    between atoms: _48  and  _51
REMARK   26  A    between atoms: _51  and  _52
REMARK   27  A    between atoms: _57  and  _59
REMARK   28  A    between atoms: _59  and  _60
REMARK   29  A    between atoms: _59  and  _62
REMARK   30  A    between atoms: _62  and  _63
REMARK   31  A    between atoms: _63  and  _64
REMARK   32  A    between atoms: _64  and  _65
REMARK   33  A    between atoms: _74  and  _76
REMARK   34  A    between atoms: _76  and  _77
REMARK   35  A    between atoms: _76  and  _79
REMARK   36  A    between atoms: _79  and  _80
REMARK   37  A    between atoms: _83  and  _85
REMARK   38  A    between atoms: _85  and  _86
REMARK   39  A    between atoms: _85  and  _88
REMARK   40  A    between atoms: _88  and  _89
REMARK   41  A    between atoms: _94  and  _96
REMARK   42  A    between atoms: _96  and  _97
REMARK   43  A    between atoms: _100  and  _102
REMARK   44  A    between atoms: _102  and  _103
REMARK   45  A    between atoms: _105  and  _107
REMARK   46  A    between atoms: _107  and  _108
REMARK   47  A    between atoms: _107  and  _110
REMARK   48  A    between atoms: _110  and  _111
REMARK   49  A    between atoms: _114  and  _116
REMARK   50  A    between atoms: _116  and  _117
REMARK   51  A    between atoms: _120  and  _122
REMARK   52  A    between atoms: _122  and  _123
REMARK   53  A    between atoms: _122  and  _125
REMARK   54  A    between atoms: _125  and  _126
REMARK   55  A    between atoms: _126  and  _127
REMARK   56  A    between atoms: _129  and  _131
REMARK   57  A    between atoms: _131  and  _132
REMARK   58  A    between atoms: _131  and  _134
REMARK   59  A    between atoms: _134  and  _135
REMARK   60  A    between atoms: _135  and  _136
REMARK   61  A    between atoms: _136  and  _137
REMARK   62  A    between atoms: _147  and  _148
REMARK   63  A    between atoms: _153  and  _155
REMARK   64  A    between atoms: _155  and  _156
REMARK   65  A    between atoms: _155  and  _158
REMARK   66  A    between atoms: _158  and  _159
REMARK   67  A    between atoms: _159  and  _160
REMARK   68  A    between atoms: _160  and  _161
REMARK   69  A    between atoms: _171  and  _172
REMARK   70  A    between atoms: _177  and  _179
REMARK   71  A    between atoms: _179  and  _180
REMARK   72  A    between atoms: _182  and  _184
REMARK   73  A    between atoms: _184  and  _185
REMARK   74  A    between atoms: _184  and  _187
REMARK   75  A    between atoms: _187  and  _188
REMARK   76  A    between atoms: _190  and  _192
REMARK   77  A    between atoms: _192  and  _193
REMARK   78  A    between atoms: _192  and  _195
REMARK   79  A    between atoms: _198  and  _200
REMARK   80  A    between atoms: _200  and  _201
REMARK   81  A    between atoms: _200  and  _203
REMARK   82  A    between atoms: _203  and  _204
REMARK   83  A    between atoms: _206  and  _208
REMARK   84  A    between atoms: _208  and  _209
REMARK   85  A    between atoms: _208  and  _211
REMARK   86  A    between atoms: _211  and  _212
REMARK   87  A    between atoms: _214  and  _216
REMARK   88  A    between atoms: _216  and  _217
REMARK   89  A    between atoms: _216  and  _219
REMARK   90  A    between atoms: _219  and  _220
REMARK   91  A    between atoms: _220  and  _221
REMARK   92  A    between atoms: _226  and  _228
REMARK   93  A    between atoms: _228  and  _229
REMARK   94  A    between atoms: _228  and  _231
REMARK   95  A    between atoms: _231  and  _232
REMARK   96  A    between atoms: _238  and  _240
REMARK   97  A    between atoms: _240  and  _241
REMARK   98  A    between atoms: _240  and  _243
REMARK   99  A    between atoms: _243  and  _244
REMARK  100  A    between atoms: _247  and  _249
REMARK  101  A    between atoms: _249  and  _250
REMARK  102  A    between atoms: _249  and  _252
REMARK  103  A    between atoms: _252  and  _253
REMARK  104  A    between atoms: _256  and  _258
REMARK  105  A    between atoms: _258  and  _259
REMARK  106  A    between atoms: _262  and  _264
REMARK  107  A    between atoms: _264  and  _265
REMARK  108  A    between atoms: _264  and  _267
REMARK  109  A    between atoms: _267  and  _268
REMARK  110  A    between atoms: _268  and  _269
REMARK  111  A    between atoms: _271  and  _273
REMARK  112  A    between atoms: _273  and  _274
REMARK  113  A    between atoms: _273  and  _276
REMARK  114  A    between atoms: _276  and  _277
REMARK  115  A    between atoms: _280  and  _282
REMARK  116  A    between atoms: _282  and  _283
REMARK  117  A    between atoms: _282  and  _285
REMARK  118  A    between atoms: _288  and  _290
REMARK  119  A    between atoms: _290  and  _291
REMARK  120  A    between atoms: _290  and  _293
REMARK  121  A    between atoms: _293  and  _294
REMARK  122  A    between atoms: _296  and  _298
REMARK  123  A    between atoms: _298  and  _299
REMARK  124  A    between atoms: _298  and  _301
REMARK  125  A    between atoms: _301  and  _302
REMARK  126  A    between atoms: _302  and  _303
REMARK  127  A    between atoms: _303  and  _304
REMARK  128  A    between atoms: _304  and  _305
REMARK  129  A    between atoms: _310  and  _311
REMARK  130  A    between atoms: _316  and  _318
REMARK  131  A    between atoms: _318  and  _319
REMARK  132  A    between atoms: _318  and  _321
REMARK  133  A    between atoms: _321  and  _322
REMARK  134  A    between atoms: _327  and  _328
REMARK  135  A    between atoms: _330  and  _332
REMARK  136  A    between atoms: _332  and  _333
REMARK  137  A    between atoms: _332  and  _335
REMARK  138  A    between atoms: _335  and  _336
REMARK  139  A    between atoms: _339  and  _341
REMARK  140  A    between atoms: _341  and  _342
REMARK  141  A    between atoms: _341  and  _344
REMARK  142  A    between atoms: _344  and  _345
REMARK  143  A    between atoms: _348  and  _350
REMARK  144  A    between atoms: _350  and  _351
REMARK  145  A    between atoms: _350  and  _353
REMARK  146  A    between atoms: _353  and  _354
REMARK  147  A    between atoms: _357  and  _359
REMARK  148  A    between atoms: _359  and  _360
REMARK  149  A    between atoms: _359  and  _362
REMARK  150  A    between atoms: _362  and  _363
REMARK  151  A    between atoms: _366  and  _368
REMARK  152  A    between atoms: _368  and  _369
REMARK  153  A    between atoms: _368  and  _371
REMARK  154  A    between atoms: _371  and  _372
REMARK  155  A    between atoms: _374  and  _376
REMARK  156  A    between atoms: _376  and  _377
REMARK  157  A    between atoms: _376  and  _379
REMARK  158  A    between atoms: _379  and  _380
REMARK  159  A    between atoms: _385  and  _386
REMARK  160  A    between atoms: _388  and  _390
REMARK  161  A    between atoms: _390  and  _391
REMARK  162  A    between atoms: _390  and  _393
REMARK  163  A    between atoms: _393  and  _394
REMARK  164  A    between atoms: _397  and  _399
REMARK  165  A    between atoms: _399  and  _400
REMARK  166  A    between atoms: _399  and  _402
REMARK  167  A    between atoms: _402  and  _403
REMARK  168  A    between atoms: _408  and  _410
REMARK  169  A    between atoms: _410  and  _411
REMARK  170  A    between atoms: _410  and  _413
REMARK  171  A    between atoms: _413  and  _414
REMARK  172  A    between atoms: _418  and  _419
REMARK  173  A    between atoms: _424  and  _426
REMARK  174  A    between atoms: _426  and  _427
REMARK  175  A    between atoms: _426  and  _429
REMARK  176  A    between atoms: _429  and  _430
REMARK  177  A    between atoms: _433  and  _435
REMARK  178  A    between atoms: _435  and  _436
REMARK  179  A    between atoms: _439  and  _441
REMARK  180  A    between atoms: _441  and  _442
REMARK  181  A    between atoms: _441  and  _444
REMARK  182  A    between atoms: _444  and  _445
REMARK  183  A    between atoms: _445  and  _446
REMARK  184  A    between atoms: _448  and  _450
REMARK  185  A    between atoms: _450  and  _451
REMARK  186  A    between atoms: _450  and  _453
REMARK  187  A    between atoms: _453  and  _454
REMARK  188  A    between atoms: _459  and  _461
REMARK  189  A    between atoms: _461  and  _462
REMARK  190  A    between atoms: _461  and  _464
REMARK  191  A    between atoms: _464  and  _465
REMARK  192  A    between atoms: _475  and  _477
REMARK  193  A    between atoms: _477  and  _478
REMARK  194  A    between atoms: _477  and  _480
REMARK  195  A    between atoms: _483  and  _485
REMARK  196  A    between atoms: _485  and  _486
REMARK  197  A    between atoms: _485  and  _488
REMARK  198  A    between atoms: _488  and  _489
REMARK  199  A    between atoms: _489  and  _490
REMARK  200  A    between atoms: _490  and  _491
REMARK  201  A    between atoms: _491  and  _492
REMARK  202  A    between atoms: _496  and  _498
REMARK  203  A    between atoms: _498  and  _499
REMARK  204  A    between atoms: _498  and  _501
REMARK  205  A    between atoms: _501  and  _502
REMARK  206  A    between atoms: _502  and  _503
REMARK  207  A    between atoms: _506  and  _508
REMARK  208  A    between atoms: _508  and  _509
REMARK  209  A    between atoms: _508  and  _511
REMARK  210  A    between atoms: _511  and  _512
REMARK  211  A    between atoms: _515  and  _517
REMARK  212  A    between atoms: _517  and  _518
REMARK  213  A    between atoms: _517  and  _520
REMARK  214  A    between atoms: _520  and  _521
REMARK  215  A    between atoms: _521  and  _522
REMARK  216  A    between atoms: _522  and  _523
REMARK  217  A    between atoms: _532  and  _534
REMARK  218  A    between atoms: _534  and  _535
REMARK  219  A    between atoms: _534  and  _537
REMARK  220  A    between atoms: _537  and  _538
REMARK  221  A    between atoms: _543  and  _545
REMARK  222  A    between atoms: _545  and  _546
REMARK  223  A    between atoms: _545  and  _548
REMARK  224  A    between atoms: _548  and  _549
REMARK  225  A    between atoms: _552  and  _554
REMARK  226  A    between atoms: _554  and  _555
REMARK  227  A    between atoms: _554  and  _557
REMARK  228  A    between atoms: _557  and  _558
REMARK  229  A    between atoms: _563  and  _565
REMARK  230  A    between atoms: _565  and  _566
REMARK  231  A    between atoms: _565  and  _568
REMARK  232  A    between atoms: _568  and  _569
REMARK  233  A    between atoms: _569  and  _570
REMARK  234  A    between atoms: _570  and  _571
REMARK  235  A    between atoms: _580  and  _582
REMARK  236  A    between atoms: _582  and  _583
REMARK  237  A    between atoms: _582  and  _585
REMARK  238  A    between atoms: _585  and  _586
REMARK  239  A    between atoms: _586  and  _587
REMARK  240  A    between atoms: _589  and  _591
REMARK  241  A    between atoms: _591  and  _592
REMARK  242  A    between atoms: _591  and  _594
REMARK  243  A    between atoms: _594  and  _595
REMARK  244  A    between atoms: _595  and  _596
REMARK  245  A    between atoms: _598  and  _600
REMARK  246  A    between atoms: _600  and  _601
REMARK  247  A    between atoms: _600  and  _603
REMARK  248  A    between atoms: _603  and  _604
REMARK  249  A    between atoms: _604  and  _605
REMARK  250  A    between atoms: _605  and  _606
REMARK  251  A    between atoms: _606  and  _607
REMARK  252  A    between atoms: _611  and  _613
REMARK  253  A    between atoms: _613  and  _614
REMARK  254  A    between atoms: _613  and  _616
REMARK  255  A    between atoms: _616  and  _617
REMARK                            x       y       z     vdW  Elec       q    Type
REMARK                         _______ _______ _______ _____ _____    ______ ____
ROOT
ATOM      1  O   HOH     1      56.547   5.240  33.843  0.00  0.00    +0.000 OA
ENDROOT
TORSDOF 0
REMARK  Name = ../refined-set-2016/1x8t/1x8t_pocket.pdb
REMARK  255 active torsions:
REMARK  status: ('A' for Active; 'I' for Inactive)
REMARK    1  A    between atoms: _1  and  _3
REMARK    2  A    between atoms: _3  and  _4
REMARK    3  A    between atoms: _3  and  _6
REMARK    4  A    between atoms: _6  and  _7
REMARK    5  A    between atoms: _9  and  _11
REMARK    6  A    between atoms: _11  and  _12
REMARK    7  A    between atoms: _11  and  _14
REMARK    8  A    between atoms: _14  and  _15
REMARK    9  A    between atoms: _15  and  _16
REMARK   10  A    between atoms: _16  and  _17
REMARK   11  A    between atoms: _17  and  _18
REMARK   12  A    between atoms: _22  and  _24
REMARK   13  A    between atoms: _24  and  _25
REMARK   14  A    between atoms: _24  and  _27
REMARK   15  A    between atoms: _27  and  _28
REMARK   16  A    between atoms: _30  and  _32
REMARK   17  A    between atoms: _32  and  _33
REMARK   18  A    between atoms: _32  and  _35
REMARK   19  A    between atoms: _38  and  _40
REMARK   20  A    between atoms: _40  and  _41
REMARK   21  A    between atoms: _40  and  _43
REMARK   22  A    between atoms: _43  and  _44
REMARK   23  A    between atoms: _46  and  _48
REMARK   24  A    between atoms: _48  and  _49
REMARK   25  A    between atoms: _48  and  _51
REMARK   26  A    between atoms: _51  and  _52
REMARK   27  A    between atoms: _57  and  _59
REMARK   28  A    between atoms: _59  and  _60
REMARK   29  A    between atoms: _59  and  _62
REMARK   30  A    between atoms: _62  and  _63
REMARK   31  A    between atoms: _63  and  _64
REMARK   32  A    between atoms: _64  and  _65
REMARK   33  A    between atoms: _74  and  _76
REMARK   34  A    between atoms: _76  and  _77
REMARK   35  A    between atoms: _76  and  _79
REMARK   36  A    between atoms: _79  and  _80
REMARK   37  A    between atoms: _83  and  _85
REMARK   38  A    between atoms: _85  and  _86
REMARK   39  A    between atoms: _85  and  _88
REMARK   40  A    between atoms: _88  and  _89
REMARK   41  A    between atoms: _94  and  _96
REMARK   42  A    between atoms: _96  and  _97
REMARK   43  A    between atoms: _100  and  _102
REMARK   44  A    between atoms: _102  and  _103
REMARK   45  A    between atoms: _105  and  _107
REMARK   46  A    between atoms: _107  and  _108
REMARK   47  A    between atoms: _107  and  _110
REMARK   48  A    between atoms: _110  and  _111
REMARK   49  A    between atoms: _114  and  _116
REMARK   50  A    between atoms: _116  and  _117
REMARK   51  A    between atoms: _120  and  _122
REMARK   52  A    between atoms: _122  and  _123
REMARK   53  A    between atoms: _122  and  _125
REMARK   54  A    between atoms: _125  and  _126
REMARK   55  A    between atoms: _126  and  _127
REMARK   56  A    between atoms: _129  and  _131
REMARK   57  A    between atoms: _131  and  _132
REMARK   58  A    between atoms: _131  and  _134
REMARK   59  A    between atoms: _134  and  _135
REMARK   60  A    between atoms: _135  and  _136
REMARK   61  A    between atoms: _136  and  _137
REMARK   62  A    between atoms: _147  and  _148
REMARK   63  A    between atoms: _153  and  _155
REMARK   64  A    between atoms: _155  and  _156
REMARK   65  A    between atoms: _155  and  _158
REMARK   66  A    between atoms: _158  and  _159
REMARK   67  A    between atoms: _159  and  _160
REMARK   68  A    between atoms: _160  and  _161
REMARK   69  A    between atoms: _171  and  _172
REMARK   70  A    between atoms: _177  and  _179
REMARK   71  A    between atoms: _179  and  _180
REMARK   72  A    between atoms: _182  and  _184
REMARK   73  A    between atoms: _184  and  _185
REMARK   74  A    between atoms: _184  and  _187
REMARK   75  A    between atoms: _187  and  _188
REMARK   76  A    between atoms: _190  and  _192
REMARK   77  A    between atoms: _192  and  _193
REMARK   78  A    between atoms: _192  and  _195
REMARK   79  A    between atoms: _198  and  _200
REMARK   80  A    between atoms: _200  and  _201
REMARK   81  A    between atoms: _200  and  _203
REMARK   82  A    between atoms: _203  and  _204
REMARK   83  A    between atoms: _206  and  _208
REMARK   84  A    between atoms: _208  and  _209
REMARK   85  A    between atoms: _208  and  _211
REMARK   86  A    between atoms: _211  and  _212
REMARK   87  A    between atoms: _214  and  _216
REMARK   88  A    between atoms: _216  and  _217
REMARK   89  A    between atoms: _216  and  _219
REMARK   90  A    between atoms: _219  and  _220
REMARK   91  A    between atoms: _220  and  _221
REMARK   92  A    between atoms: _226  and  _228
REMARK   93  A    between atoms: _228  and  _229
REMARK   94  A    between atoms: _228  and  _231
REMARK   95  A    between atoms: _231  and  _232
REMARK   96  A    between atoms: _238  and  _240
REMARK   97  A    between atoms: _240  and  _241
REMARK   98  A    between atoms: _240  and  _243
REMARK   99  A    between atoms: _243  and  _244
REMARK  100  A    between atoms: _247  and  _249
REMARK  101  A    between atoms: _249  and  _250
REMARK  102  A    between atoms: _249  and  _252
REMARK  103  A    between atoms: _252  and  _253
REMARK  104  A    between atoms: _256  and  _258
REMARK  105  A    between atoms: _258  and  _259
REMARK  106  A    between atoms: _262  and  _264
REMARK  107  A    between atoms: _264  and  _265
REMARK  108  A    between atoms: _264  and  _267
REMARK  109  A    between atoms: _267  and  _268
REMARK  110  A    between atoms: _268  and  _269
REMARK  111  A    between atoms: _271  and  _273
REMARK  112  A    between atoms: _273  and  _274
REMARK  113  A    between atoms: _273  and  _276
REMARK  114  A    between atoms: _276  and  _277
REMARK  115  A    between atoms: _280  and  _282
REMARK  116  A    between atoms: _282  and  _283
REMARK  117  A    between atoms: _282  and  _285
REMARK  118  A    between atoms: _288  and  _290
REMARK  119  A    between atoms: _290  and  _291
REMARK  120  A    between atoms: _290  and  _293
REMARK  121  A    between atoms: _293  and  _294
REMARK  122  A    between atoms: _296  and  _298
REMARK  123  A    between atoms: _298  and  _299
REMARK  124  A    between atoms: _298  and  _301
REMARK  125  A    between atoms: _301  and  _302
REMARK  126  A    between atoms: _302  and  _303
REMARK  127  A    between atoms: _303  and  _304
REMARK  128  A    between atoms: _304  and  _305
REMARK  129  A    between atoms: _310  and  _311
REMARK  130  A    between atoms: _316  and  _318
REMARK  131  A    between atoms: _318  and  _319
REMARK  132  A    between atoms: _318  and  _321
REMARK  133  A    between atoms: _321  and  _322
REMARK  134  A    between atoms: _327  and  _328
REMARK  135  A    between atoms: _330  and  _332
REMARK  136  A    between atoms: _332  and  _333
REMARK  137  A    between atoms: _332  and  _335
REMARK  138  A    between atoms: _335  and  _336
REMARK  139  A    between atoms: _339  and  _341
REMARK  140  A    between atoms: _341  and  _342
REMARK  141  A    between atoms: _341  and  _344
REMARK  142  A    between atoms: _344  and  _345
REMARK  143  A    between atoms: _348  and  _350
REMARK  144  A    between atoms: _350  and  _351
REMARK  145  A    between atoms: _350  and  _353
REMARK  146  A    between atoms: _353  and  _354
REMARK  147  A    between atoms: _357  and  _359
REMARK  148  A    between atoms: _359  and  _360
REMARK  149  A    between atoms: _359  and  _362
REMARK  150  A    between atoms: _362  and  _363
REMARK  151  A    between atoms: _366  and  _368
REMARK  152  A    between atoms: _368  and  _369
REMARK  153  A    between atoms: _368  and  _371
REMARK  154  A    between atoms: _371  and  _372
REMARK  155  A    between atoms: _374  and  _376
REMARK  156  A    between atoms: _376  and  _377
REMARK  157  A    between atoms: _376  and  _379
REMARK  158  A    between atoms: _379  and  _380
REMARK  159  A    between atoms: _385  and  _386
REMARK  160  A    between atoms: _388  and  _390
REMARK  161  A    between atoms: _390  and  _391
REMARK  162  A    between atoms: _390  and  _393
REMARK  163  A    between atoms: _393  and  _394
REMARK  164  A    between atoms: _397  and  _399
REMARK  165  A    between atoms: _399  and  _400
REMARK  166  A    between atoms: _399  and  _402
REMARK  167  A    between atoms: _402  and  _403
REMARK  168  A    between atoms: _408  and  _410
REMARK  169  A    between atoms: _410  and  _411
REMARK  170  A    between atoms: _410  and  _413
REMARK  171  A    between atoms: _413  and  _414
REMARK  172  A    between atoms: _418  and  _419
REMARK  173  A    between atoms: _424  and  _426
REMARK  174  A    between atoms: _426  and  _427
REMARK  175  A    between atoms: _426  and  _429
REMARK  176  A    between atoms: _429  and  _430
REMARK  177  A    between atoms: _433  and  _435
REMARK  178  A    between atoms: _435  and  _436
REMARK  179  A    between atoms: _439  and  _441
REMARK  180  A    between atoms: _441  and  _442
REMARK  181  A    between atoms: _441  and  _444
REMARK  182  A    between atoms: _444  and  _445
REMARK  183  A    between atoms: _445  and  _446
REMARK  184  A    between atoms: _448  and  _450
REMARK  185  A    between atoms: _450  and  _451
REMARK  186  A    between atoms: _450  and  _453
REMARK  187  A    between atoms: _453  and  _454
REMARK  188  A    between atoms: _459  and  _461
REMARK  189  A    between atoms: _461  and  _462
REMARK  190  A    between atoms: _461  and  _464
REMARK  191  A    between atoms: _464  and  _465
REMARK  192  A    between atoms: _475  and  _477
REMARK  193  A    between atoms: _477  and  _478
REMARK  194  A    between atoms: _477  and  _480
REMARK  195  A    between atoms: _483  and  _485
REMARK  196  A    between atoms: _485  and  _486
REMARK  197  A    between atoms: _485  and  _488
REMARK  198  A    between atoms: _488  and  _489
REMARK  199  A    between atoms: _489  and  _490
REMARK  200  A    between atoms: _490  and  _491
REMARK  201  A    between atoms: _491  and  _492
REMARK  202  A    between atoms: _496  and  _498
REMARK  203  A    between atoms: _498  and  _499
REMARK  204  A    between atoms: _498  and  _501
REMARK  205  A    between atoms: _501  and  _502
REMARK  206  A    between atoms: _502  and  _503
REMARK  207  A    between atoms: _506  and  _508
REMARK  208  A    between atoms: _508  and  _509
REMARK  209  A    between atoms: _508  and  _511
REMARK  210  A    between atoms: _511  and  _512
REMARK  211  A    between atoms: _515  and  _517
REMARK  212  A    between atoms: _517  and  _518
REMARK  213  A    between atoms: _517  and  _520
REMARK  214  A    between atoms: _520  and  _521
REMARK  215  A    between atoms: _521  and  _522
REMARK  216  A    between atoms: _522  and  _523
REMARK  217  A    between atoms: _532  and  _534
REMARK  218  A    between atoms: _534  and  _535
REMARK  219  A    between atoms: _534  and  _537
REMARK  220  A    between atoms: _537  and  _538
REMARK  221  A    between atoms: _543  and  _545
REMARK  222  A    between atoms: _545  and  _546
REMARK  223  A    between atoms: _545  and  _548
REMARK  224  A    between atoms: _548  and  _549
REMARK  225  A    between atoms: _552  and  _554
REMARK  226  A    between atoms: _554  and  _555
REMARK  227  A    between atoms: _554  and  _557
REMARK  228  A    between atoms: _557  and  _558
REMARK  229  A    between atoms: _563  and  _565
REMARK  230  A    between atoms: _565  and  _566
REMARK  231  A    between atoms: _565  and  _568
REMARK  232  A    between atoms: _568  and  _569
REMARK  233  A    between atoms: _569  and  _570
REMARK  234  A    between atoms: _570  and  _571
REMARK  235  A    between atoms: _580  and  _582
REMARK  236  A    between atoms: _582  and  _583
REMARK  237  A    between atoms: _582  and  _585
REMARK  238  A    between atoms: _585  and  _586
REMARK  239  A    between atoms: _586  and  _587
REMARK  240  A    between atoms: _589  and  _591
REMARK  241  A    between atoms: _591  and  _592
REMARK  242  A    between atoms: _591  and  _594
REMARK  243  A    between atoms: _594  and  _595
REMARK  244  A    between atoms: _595  and  _596
REMARK  245  A    between atoms: _598  and  _600
REMARK  246  A    between atoms: _600  and  _601
REMARK  247  A    between atoms: _600  and  _603
REMARK  248  A    between atoms: _603  and  _604
REMARK  249  A    between atoms: _604  and  _605
REMARK  250  A    between atoms: _605  and  _606
REMARK  251  A    between atoms: _606  and  _607
REMARK  252  A    between atoms: _611  and  _613
REMARK  253  A    between atoms: _613  and  _614
REMARK  254  A    between atoms: _613  and  _616
REMARK  255  A    between atoms: _616  and  _617
REMARK                            x       y       z     vdW  Elec       q    Type
REMARK                         _______ _______ _______ _____ _____    ______ ____
ROOT
ATOM      1  O   HOH     1      50.778   3.769  32.735  0.00  0.00    +0.000 OA
ENDROOT
TORSDOF 0
REMARK  Name = ../refined-set-2016/1x8t/1x8t_pocket.pdb
REMARK  255 active torsions:
REMARK  status: ('A' for Active; 'I' for Inactive)
REMARK    1  A    between atoms: _1  and  _3
REMARK    2  A    between atoms: _3  and  _4
REMARK    3  A    between atoms: _3  and  _6
REMARK    4  A    between atoms: _6  and  _7
REMARK    5  A    between atoms: _9  and  _11
REMARK    6  A    between atoms: _11  and  _12
REMARK    7  A    between atoms: _11  and  _14
REMARK    8  A    between atoms: _14  and  _15
REMARK    9  A    between atoms: _15  and  _16
REMARK   10  A    between atoms: _16  and  _17
REMARK   11  A    between atoms: _17  and  _18
REMARK   12  A    between atoms: _22  and  _24
REMARK   13  A    between atoms: _24  and  _25
REMARK   14  A    between atoms: _24  and  _27
REMARK   15  A    between atoms: _27  and  _28
REMARK   16  A    between atoms: _30  and  _32
REMARK   17  A    between atoms: _32  and  _33
REMARK   18  A    between atoms: _32  and  _35
REMARK   19  A    between atoms: _38  and  _40
REMARK   20  A    between atoms: _40  and  _41
REMARK   21  A    between atoms: _40  and  _43
REMARK   22  A    between atoms: _43  and  _44
REMARK   23  A    between atoms: _46  and  _48
REMARK   24  A    between atoms: _48  and  _49
REMARK   25  A    between atoms: _48  and  _51
REMARK   26  A    between atoms: _51  and  _52
REMARK   27  A    between atoms: _57  and  _59
REMARK   28  A    between atoms: _59  and  _60
REMARK   29  A    between atoms: _59  and  _62
REMARK   30  A    between atoms: _62  and  _63
REMARK   31  A    between atoms: _63  and  _64
REMARK   32  A    between atoms: _64  and  _65
REMARK   33  A    between atoms: _74  and  _76
REMARK   34  A    between atoms: _76  and  _77
REMARK   35  A    between atoms: _76  and  _79
REMARK   36  A    between atoms: _79  and  _80
REMARK   37  A    between atoms: _83  and  _85
REMARK   38  A    between atoms: _85  and  _86
REMARK   39  A    between atoms: _85  and  _88
REMARK   40  A    between atoms: _88  and  _89
REMARK   41  A    between atoms: _94  and  _96
REMARK   42  A    between atoms: _96  and  _97
REMARK   43  A    between atoms: _100  and  _102
REMARK   44  A    between atoms: _102  and  _103
REMARK   45  A    between atoms: _105  and  _107
REMARK   46  A    between atoms: _107  and  _108
REMARK   47  A    between atoms: _107  and  _110
REMARK   48  A    between atoms: _110  and  _111
REMARK   49  A    between atoms: _114  and  _116
REMARK   50  A    between atoms: _116  and  _117
REMARK   51  A    between atoms: _120  and  _122
REMARK   52  A    between atoms: _122  and  _123
REMARK   53  A    between atoms: _122  and  _125
REMARK   54  A    between atoms: _125  and  _126
REMARK   55  A    between atoms: _126  and  _127
REMARK   56  A    between atoms: _129  and  _131
REMARK   57  A    between atoms: _131  and  _132
REMARK   58  A    between atoms: _131  and  _134
REMARK   59  A    between atoms: _134  and  _135
REMARK   60  A    between atoms: _135  and  _136
REMARK   61  A    between atoms: _136  and  _137
REMARK   62  A    between atoms: _147  and  _148
REMARK   63  A    between atoms: _153  and  _155
REMARK   64  A    between atoms: _155  and  _156
REMARK   65  A    between atoms: _155  and  _158
REMARK   66  A    between atoms: _158  and  _159
REMARK   67  A    between atoms: _159  and  _160
REMARK   68  A    between atoms: _160  and  _161
REMARK   69  A    between atoms: _171  and  _172
REMARK   70  A    between atoms: _177  and  _179
REMARK   71  A    between atoms: _179  and  _180
REMARK   72  A    between atoms: _182  and  _184
REMARK   73  A    between atoms: _184  and  _185
REMARK   74  A    between atoms: _184  and  _187
REMARK   75  A    between atoms: _187  and  _188
REMARK   76  A    between atoms: _190  and  _192
REMARK   77  A    between atoms: _192  and  _193
REMARK   78  A    between atoms: _192  and  _195
REMARK   79  A    between atoms: _198  and  _200
REMARK   80  A    between atoms: _200  and  _201
REMARK   81  A    between atoms: _200  and  _203
REMARK   82  A    between atoms: _203  and  _204
REMARK   83  A    between atoms: _206  and  _208
REMARK   84  A    between atoms: _208  and  _209
REMARK   85  A    between atoms: _208  and  _211
REMARK   86  A    between atoms: _211  and  _212
REMARK   87  A    between atoms: _214  and  _216
REMARK   88  A    between atoms: _216  and  _217
REMARK   89  A    between atoms: _216  and  _219
REMARK   90  A    between atoms: _219  and  _220
REMARK   91  A    between atoms: _220  and  _221
REMARK   92  A    between atoms: _226  and  _228
REMARK   93  A    between atoms: _228  and  _229
REMARK   94  A    between atoms: _228  and  _231
REMARK   95  A    between atoms: _231  and  _232
REMARK   96  A    between atoms: _238  and  _240
REMARK   97  A    between atoms: _240  and  _241
REMARK   98  A    between atoms: _240  and  _243
REMARK   99  A    between atoms: _243  and  _244
REMARK  100  A    between atoms: _247  and  _249
REMARK  101  A    between atoms: _249  and  _250
REMARK  102  A    between atoms: _249  and  _252
REMARK  103  A    between atoms: _252  and  _253
REMARK  104  A    between atoms: _256  and  _258
REMARK  105  A    between atoms: _258  and  _259
REMARK  106  A    between atoms: _262  and  _264
REMARK  107  A    between atoms: _264  and  _265
REMARK  108  A    between atoms: _264  and  _267
REMARK  109  A    between atoms: _267  and  _268
REMARK  110  A    between atoms: _268  and  _269
REMARK  111  A    between atoms: _271  and  _273
REMARK  112  A    between atoms: _273  and  _274
REMARK  113  A    between atoms: _273  and  _276
REMARK  114  A    between atoms: _276  and  _277
REMARK  115  A    between atoms: _280  and  _282
REMARK  116  A    between atoms: _282  and  _283
REMARK  117  A    between atoms: _282  and  _285
REMARK  118  A    between atoms: _288  and  _290
REMARK  119  A    between atoms: _290  and  _291
REMARK  120  A    between atoms: _290  and  _293
REMARK  121  A    between atoms: _293  and  _294
REMARK  122  A    between atoms: _296  and  _298
REMARK  123  A    between atoms: _298  and  _299
REMARK  124  A    between atoms: _298  and  _301
REMARK  125  A    between atoms: _301  and  _302
REMARK  126  A    between atoms: _302  and  _303
REMARK  127  A    between atoms: _303  and  _304
REMARK  128  A    between atoms: _304  and  _305
REMARK  129  A    between atoms: _310  and  _311
REMARK  130  A    between atoms: _316  and  _318
REMARK  131  A    between atoms: _318  and  _319
REMARK  132  A    between atoms: _318  and  _321
REMARK  133  A    between atoms: _321  and  _322
REMARK  134  A    between atoms: _327  and  _328
REMARK  135  A    between atoms: _330  and  _332
REMARK  136  A    between atoms: _332  and  _333
REMARK  137  A    between atoms: _332  and  _335
REMARK  138  A    between atoms: _335  and  _336
REMARK  139  A    between atoms: _339  and  _341
REMARK  140  A    between atoms: _341  and  _342
REMARK  141  A    between atoms: _341  and  _344
REMARK  142  A    between atoms: _344  and  _345
REMARK  143  A    between atoms: _348  and  _350
REMARK  144  A    between atoms: _350  and  _351
REMARK  145  A    between atoms: _350  and  _353
REMARK  146  A    between atoms: _353  and  _354
REMARK  147  A    between atoms: _357  and  _359
REMARK  148  A    between atoms: _359  and  _360
REMARK  149  A    between atoms: _359  and  _362
REMARK  150  A    between atoms: _362  and  _363
REMARK  151  A    between atoms: _366  and  _368
REMARK  152  A    between atoms: _368  and  _369
REMARK  153  A    between atoms: _368  and  _371
REMARK  154  A    between atoms: _371  and  _372
REMARK  155  A    between atoms: _374  and  _376
REMARK  156  A    between atoms: _376  and  _377
REMARK  157  A    between atoms: _376  and  _379
REMARK  158  A    between atoms: _379  and  _380
REMARK  159  A    between atoms: _385  and  _386
REMARK  160  A    between atoms: _388  and  _390
REMARK  161  A    between atoms: _390  and  _391
REMARK  162  A    between atoms: _390  and  _393
REMARK  163  A    between atoms: _393  and  _394
REMARK  164  A    between atoms: _397  and  _399
REMARK  165  A    between atoms: _399  and  _400
REMARK  166  A    between atoms: _399  and  _402
REMARK  167  A    between atoms: _402  and  _403
REMARK  168  A    between atoms: _408  and  _410
REMARK  169  A    between atoms: _410  and  _411
REMARK  170  A    between atoms: _410  and  _413
REMARK  171  A    between atoms: _413  and  _414
REMARK  172  A    between atoms: _418  and  _419
REMARK  173  A    between atoms: _424  and  _426
REMARK  174  A    between atoms: _426  and  _427
REMARK  175  A    between atoms: _426  and  _429
REMARK  176  A    between atoms: _429  and  _430
REMARK  177  A    between atoms: _433  and  _435
REMARK  178  A    between atoms: _435  and  _436
REMARK  179  A    between atoms: _439  and  _441
REMARK  180  A    between atoms: _441  and  _442
REMARK  181  A    between atoms: _441  and  _444
REMARK  182  A    between atoms: _444  and  _445
REMARK  183  A    between atoms: _445  and  _446
REMARK  184  A    between atoms: _448  and  _450
REMARK  185  A    between atoms: _450  and  _451
REMARK  186  A    between atoms: _450  and  _453
REMARK  187  A    between atoms: _453  and  _454
REMARK  188  A    between atoms: _459  and  _461
REMARK  189  A    between atoms: _461  and  _462
REMARK  190  A    between atoms: _461  and  _464
REMARK  191  A    between atoms: _464  and  _465
REMARK  192  A    between atoms: _475  and  _477
REMARK  193  A    between atoms: _477  and  _478
REMARK  194  A    between atoms: _477  and  _480
REMARK  195  A    between atoms: _483  and  _485
REMARK  196  A    between atoms: _485  and  _486
REMARK  197  A    between atoms: _485  and  _488
REMARK  198  A    between atoms: _488  and  _489
REMARK  199  A    between atoms: _489  and  _490
REMARK  200  A    between atoms: _490  and  _491
REMARK  201  A    between atoms: _491  and  _492
REMARK  202  A    between atoms: _496  and  _498
REMARK  203  A    between atoms: _498  and  _499
REMARK  204  A    between atoms: _498  and  _501
REMARK  205  A    between atoms: _501  and  _502
REMARK  206  A    between atoms: _502  and  _503
REMARK  207  A    between atoms: _506  and  _508
REMARK  208  A    between atoms: _508  and  _509
REMARK  209  A    between atoms: _508  and  _511
REMARK  210  A    between atoms: _511  and  _512
REMARK  211  A    between atoms: _515  and  _517
REMARK  212  A    between atoms: _517  and  _518
REMARK  213  A    between atoms: _517  and  _520
REMARK  214  A    between atoms: _520  and  _521
REMARK  215  A    between atoms: _521  and  _522
REMARK  216  A    between atoms: _522  and  _523
REMARK  217  A    between atoms: _532  and  _534
REMARK  218  A    between atoms: _534  and  _535
REMARK  219  A    between atoms: _534  and  _537
REMARK  220  A    between atoms: _537  and  _538
REMARK  221  A    between atoms: _543  and  _545
REMARK  222  A    between atoms: _545  and  _546
REMARK  223  A    between atoms: _545  and  _548
REMARK  224  A    between atoms: _548  and  _549
REMARK  225  A    between atoms: _552  and  _554
REMARK  226  A    between atoms: _554  and  _555
REMARK  227  A    between atoms: _554  and  _557
REMARK  228  A    between atoms: _557  and  _558
REMARK  229  A    between atoms: _563  and  _565
REMARK  230  A    between atoms: _565  and  _566
REMARK  231  A    between atoms: _565  and  _568
REMARK  232  A    between atoms: _568  and  _569
REMARK  233  A    between atoms: _569  and  _570
REMARK  234  A    between atoms: _570  and  _571
REMARK  235  A    between atoms: _580  and  _582
REMARK  236  A    between atoms: _582  and  _583
REMARK  237  A    between atoms: _582  and  _585
REMARK  238  A    between atoms: _585  and  _586
REMARK  239  A    between atoms: _586  and  _587
REMARK  240  A    between atoms: _589  and  _591
REMARK  241  A    between atoms: _591  and  _592
REMARK  242  A    between atoms: _591  and  _594
REMARK  243  A    between atoms: _594  and  _595
REMARK  244  A    between atoms: _595  and  _596
REMARK  245  A    between atoms: _598  and  _600
REMARK  246  A    between atoms: _600  and  _601
REMARK  247  A    between atoms: _600  and  _603
REMARK  248  A    between atoms: _603  and  _604
REMARK  249  A    between atoms: _604  and  _605
REMARK  250  A    between atoms: _605  and  _606
REMARK  251  A    between atoms: _606  and  _607
REMARK  252  A    between atoms: _611  and  _613
REMARK  253  A    between atoms: _613  and  _614
REMARK  254  A    between atoms: _613  and  _616
REMARK  255  A    between atoms: _616  and  _617
REMARK                            x       y       z     vdW  Elec       q    Type
REMARK                         _______ _______ _______ _____ _____    ______ ____
ROOT
ATOM      1  O   HOH     1      53.722   3.997  26.824  0.00  0.00    +0.000 OA
ENDROOT
TORSDOF 0
REMARK  Name = ../refined-set-2016/1x8t/1x8t_pocket.pdb
REMARK  255 active torsions:
REMARK  status: ('A' for Active; 'I' for Inactive)
REMARK    1  A    between atoms: _1  and  _3
REMARK    2  A    between atoms: _3  and  _4
REMARK    3  A    between atoms: _3  and  _6
REMARK    4  A    between atoms: _6  and  _7
REMARK    5  A    between atoms: _9  and  _11
REMARK    6  A    between atoms: _11  and  _12
REMARK    7  A    between atoms: _11  and  _14
REMARK    8  A    between atoms: _14  and  _15
REMARK    9  A    between atoms: _15  and  _16
REMARK   10  A    between atoms: _16  and  _17
REMARK   11  A    between atoms: _17  and  _18
REMARK   12  A    between atoms: _22  and  _24
REMARK   13  A    between atoms: _24  and  _25
REMARK   14  A    between atoms: _24  and  _27
REMARK   15  A    between atoms: _27  and  _28
REMARK   16  A    between atoms: _30  and  _32
REMARK   17  A    between atoms: _32  and  _33
REMARK   18  A    between atoms: _32  and  _35
REMARK   19  A    between atoms: _38  and  _40
REMARK   20  A    between atoms: _40  and  _41
REMARK   21  A    between atoms: _40  and  _43
REMARK   22  A    between atoms: _43  and  _44
REMARK   23  A    between atoms: _46  and  _48
REMARK   24  A    between atoms: _48  and  _49
REMARK   25  A    between atoms: _48  and  _51
REMARK   26  A    between atoms: _51  and  _52
REMARK   27  A    between atoms: _57  and  _59
REMARK   28  A    between atoms: _59  and  _60
REMARK   29  A    between atoms: _59  and  _62
REMARK   30  A    between atoms: _62  and  _63
REMARK   31  A    between atoms: _63  and  _64
REMARK   32  A    between atoms: _64  and  _65
REMARK   33  A    between atoms: _74  and  _76
REMARK   34  A    between atoms: _76  and  _77
REMARK   35  A    between atoms: _76  and  _79
REMARK   36  A    between atoms: _79  and  _80
REMARK   37  A    between atoms: _83  and  _85
REMARK   38  A    between atoms: _85  and  _86
REMARK   39  A    between atoms: _85  and  _88
REMARK   40  A    between atoms: _88  and  _89
REMARK   41  A    between atoms: _94  and  _96
REMARK   42  A    between atoms: _96  and  _97
REMARK   43  A    between atoms: _100  and  _102
REMARK   44  A    between atoms: _102  and  _103
REMARK   45  A    between atoms: _105  and  _107
REMARK   46  A    between atoms: _107  and  _108
REMARK   47  A    between atoms: _107  and  _110
REMARK   48  A    between atoms: _110  and  _111
REMARK   49  A    between atoms: _114  and  _116
REMARK   50  A    between atoms: _116  and  _117
REMARK   51  A    between atoms: _120  and  _122
REMARK   52  A    between atoms: _122  and  _123
REMARK   53  A    between atoms: _122  and  _125
REMARK   54  A    between atoms: _125  and  _126
REMARK   55  A    between atoms: _126  and  _127
REMARK   56  A    between atoms: _129  and  _131
REMARK   57  A    between atoms: _131  and  _132
REMARK   58  A    between atoms: _131  and  _134
REMARK   59  A    between atoms: _134  and  _135
REMARK   60  A    between atoms: _135  and  _136
REMARK   61  A    between atoms: _136  and  _137
REMARK   62  A    between atoms: _147  and  _148
REMARK   63  A    between atoms: _153  and  _155
REMARK   64  A    between atoms: _155  and  _156
REMARK   65  A    between atoms: _155  and  _158
REMARK   66  A    between atoms: _158  and  _159
REMARK   67  A    between atoms: _159  and  _160
REMARK   68  A    between atoms: _160  and  _161
REMARK   69  A    between atoms: _171  and  _172
REMARK   70  A    between atoms: _177  and  _179
REMARK   71  A    between atoms: _179  and  _180
REMARK   72  A    between atoms: _182  and  _184
REMARK   73  A    between atoms: _184  and  _185
REMARK   74  A    between atoms: _184  and  _187
REMARK   75  A    between atoms: _187  and  _188
REMARK   76  A    between atoms: _190  and  _192
REMARK   77  A    between atoms: _192  and  _193
REMARK   78  A    between atoms: _192  and  _195
REMARK   79  A    between atoms: _198  and  _200
REMARK   80  A    between atoms: _200  and  _201
REMARK   81  A    between atoms: _200  and  _203
REMARK   82  A    between atoms: _203  and  _204
REMARK   83  A    between atoms: _206  and  _208
REMARK   84  A    between atoms: _208  and  _209
REMARK   85  A    between atoms: _208  and  _211
REMARK   86  A    between atoms: _211  and  _212
REMARK   87  A    between atoms: _214  and  _216
REMARK   88  A    between atoms: _216  and  _217
REMARK   89  A    between atoms: _216  and  _219
REMARK   90  A    between atoms: _219  and  _220
REMARK   91  A    between atoms: _220  and  _221
REMARK   92  A    between atoms: _226  and  _228
REMARK   93  A    between atoms: _228  and  _229
REMARK   94  A    between atoms: _228  and  _231
REMARK   95  A    between atoms: _231  and  _232
REMARK   96  A    between atoms: _238  and  _240
REMARK   97  A    between atoms: _240  and  _241
REMARK   98  A    between atoms: _240  and  _243
REMARK   99  A    between atoms: _243  and  _244
REMARK  100  A    between atoms: _247  and  _249
REMARK  101  A    between atoms: _249  and  _250
REMARK  102  A    between atoms: _249  and  _252
REMARK  103  A    between atoms: _252  and  _253
REMARK  104  A    between atoms: _256  and  _258
REMARK  105  A    between atoms: _258  and  _259
REMARK  106  A    between atoms: _262  and  _264
REMARK  107  A    between atoms: _264  and  _265
REMARK  108  A    between atoms: _264  and  _267
REMARK  109  A    between atoms: _267  and  _268
REMARK  110  A    between atoms: _268  and  _269
REMARK  111  A    between atoms: _271  and  _273
REMARK  112  A    between atoms: _273  and  _274
REMARK  113  A    between atoms: _273  and  _276
REMARK  114  A    between atoms: _276  and  _277
REMARK  115  A    between atoms: _280  and  _282
REMARK  116  A    between atoms: _282  and  _283
REMARK  117  A    between atoms: _282  and  _285
REMARK  118  A    between atoms: _288  and  _290
REMARK  119  A    between atoms: _290  and  _291
REMARK  120  A    between atoms: _290  and  _293
REMARK  121  A    between atoms: _293  and  _294
REMARK  122  A    between atoms: _296  and  _298
REMARK  123  A    between atoms: _298  and  _299
REMARK  124  A    between atoms: _298  and  _301
REMARK  125  A    between atoms: _301  and  _302
REMARK  126  A    between atoms: _302  and  _303
REMARK  127  A    between atoms: _303  and  _304
REMARK  128  A    between atoms: _304  and  _305
REMARK  129  A    between atoms: _310  and  _311
REMARK  130  A    between atoms: _316  and  _318
REMARK  131  A    between atoms: _318  and  _319
REMARK  132  A    between atoms: _318  and  _321
REMARK  133  A    between atoms: _321  and  _322
REMARK  134  A    between atoms: _327  and  _328
REMARK  135  A    between atoms: _330  and  _332
REMARK  136  A    between atoms: _332  and  _333
REMARK  137  A    between atoms: _332  and  _335
REMARK  138  A    between atoms: _335  and  _336
REMARK  139  A    between atoms: _339  and  _341
REMARK  140  A    between atoms: _341  and  _342
REMARK  141  A    between atoms: _341  and  _344
REMARK  142  A    between atoms: _344  and  _345
REMARK  143  A    between atoms: _348  and  _350
REMARK  144  A    between atoms: _350  and  _351
REMARK  145  A    between atoms: _350  and  _353
REMARK  146  A    between atoms: _353  and  _354
REMARK  147  A    between atoms: _357  and  _359
REMARK  148  A    between atoms: _359  and  _360
REMARK  149  A    between atoms: _359  and  _362
REMARK  150  A    between atoms: _362  and  _363
REMARK  151  A    between atoms: _366  and  _368
REMARK  152  A    between atoms: _368  and  _369
REMARK  153  A    between atoms: _368  and  _371
REMARK  154  A    between atoms: _371  and  _372
REMARK  155  A    between atoms: _374  and  _376
REMARK  156  A    between atoms: _376  and  _377
REMARK  157  A    between atoms: _376  and  _379
REMARK  158  A    between atoms: _379  and  _380
REMARK  159  A    between atoms: _385  and  _386
REMARK  160  A    between atoms: _388  and  _390
REMARK  161  A    between atoms: _390  and  _391
REMARK  162  A    between atoms: _390  and  _393
REMARK  163  A    between atoms: _393  and  _394
REMARK  164  A    between atoms: _397  and  _399
REMARK  165  A    between atoms: _399  and  _400
REMARK  166  A    between atoms: _399  and  _402
REMARK  167  A    between atoms: _402  and  _403
REMARK  168  A    between atoms: _408  and  _410
REMARK  169  A    between atoms: _410  and  _411
REMARK  170  A    between atoms: _410  and  _413
REMARK  171  A    between atoms: _413  and  _414
REMARK  172  A    between atoms: _418  and  _419
REMARK  173  A    between atoms: _424  and  _426
REMARK  174  A    between atoms: _426  and  _427
REMARK  175  A    between atoms: _426  and  _429
REMARK  176  A    between atoms: _429  and  _430
REMARK  177  A    between atoms: _433  and  _435
REMARK  178  A    between atoms: _435  and  _436
REMARK  179  A    between atoms: _439  and  _441
REMARK  180  A    between atoms: _441  and  _442
REMARK  181  A    between atoms: _441  and  _444
REMARK  182  A    between atoms: _444  and  _445
REMARK  183  A    between atoms: _445  and  _446
REMARK  184  A    between atoms: _448  and  _450
REMARK  185  A    between atoms: _450  and  _451
REMARK  186  A    between atoms: _450  and  _453
REMARK  187  A    between atoms: _453  and  _454
REMARK  188  A    between atoms: _459  and  _461
REMARK  189  A    between atoms: _461  and  _462
REMARK  190  A    between atoms: _461  and  _464
REMARK  191  A    between atoms: _464  and  _465
REMARK  192  A    between atoms: _475  and  _477
REMARK  193  A    between atoms: _477  and  _478
REMARK  194  A    between atoms: _477  and  _480
REMARK  195  A    between atoms: _483  and  _485
REMARK  196  A    between atoms: _485  and  _486
REMARK  197  A    between atoms: _485  and  _488
REMARK  198  A    between atoms: _488  and  _489
REMARK  199  A    between atoms: _489  and  _490
REMARK  200  A    between atoms: _490  and  _491
REMARK  201  A    between atoms: _491  and  _492
REMARK  202  A    between atoms: _496  and  _498
REMARK  203  A    between atoms: _498  and  _499
REMARK  204  A    between atoms: _498  and  _501
REMARK  205  A    between atoms: _501  and  _502
REMARK  206  A    between atoms: _502  and  _503
REMARK  207  A    between atoms: _506  and  _508
REMARK  208  A    between atoms: _508  and  _509
REMARK  209  A    between atoms: _508  and  _511
REMARK  210  A    between atoms: _511  and  _512
REMARK  211  A    between atoms: _515  and  _517
REMARK  212  A    between atoms: _517  and  _518
REMARK  213  A    between atoms: _517  and  _520
REMARK  214  A    between atoms: _520  and  _521
REMARK  215  A    between atoms: _521  and  _522
REMARK  216  A    between atoms: _522  and  _523
REMARK  217  A    between atoms: _532  and  _534
REMARK  218  A    between atoms: _534  and  _535
REMARK  219  A    between atoms: _534  and  _537
REMARK  220  A    between atoms: _537  and  _538
REMARK  221  A    between atoms: _543  and  _545
REMARK  222  A    between atoms: _545  and  _546
REMARK  223  A    between atoms: _545  and  _548
REMARK  224  A    between atoms: _548  and  _549
REMARK  225  A    between atoms: _552  and  _554
REMARK  226  A    between atoms: _554  and  _555
REMARK  227  A    between atoms: _554  and  _557
REMARK  228  A    between atoms: _557  and  _558
REMARK  229  A    between atoms: _563  and  _565
REMARK  230  A    between atoms: _565  and  _566
REMARK  231  A    between atoms: _565  and  _568
REMARK  232  A    between atoms: _568  and  _569
REMARK  233  A    between atoms: _569  and  _570
REMARK  234  A    between atoms: _570  and  _571
REMARK  235  A    between atoms: _580  and  _582
REMARK  236  A    between atoms: _582  and  _583
REMARK  237  A    between atoms: _582  and  _585
REMARK  238  A    between atoms: _585  and  _586
REMARK  239  A    between atoms: _586  and  _587
REMARK  240  A    between atoms: _589  and  _591
REMARK  241  A    between atoms: _591  and  _592
REMARK  242  A    between atoms: _591  and  _594
REMARK  243  A    between atoms: _594  and  _595
REMARK  244  A    between atoms: _595  and  _596
REMARK  245  A    between atoms: _598  and  _600
REMARK  246  A    between atoms: _600  and  _601
REMARK  247  A    between atoms: _600  and  _603
REMARK  248  A    between atoms: _603  and  _604
REMARK  249  A    between atoms: _604  and  _605
REMARK  250  A    between atoms: _605  and  _606
REMARK  251  A    between atoms: _606  and  _607
REMARK  252  A    between atoms: _611  and  _613
REMARK  253  A    between atoms: _613  and  _614
REMARK  254  A    between atoms: _613  and  _616
REMARK  255  A    between atoms: _616  and  _617
REMARK                            x       y       z     vdW  Elec       q    Type
REMARK                         _______ _______ _______ _____ _____    ______ ____
ROOT
ATOM      1  O   HOH     1      67.217   5.891  30.577  0.00  0.00    +0.000 OA
ENDROOT
TORSDOF 0
REMARK  Name = ../refined-set-2016/1x8t/1x8t_pocket.pdb
REMARK  255 active torsions:
REMARK  status: ('A' for Active; 'I' for Inactive)
REMARK    1  A    between atoms: _1  and  _3
REMARK    2  A    between atoms: _3  and  _4
REMARK    3  A    between atoms: _3  and  _6
REMARK    4  A    between atoms: _6  and  _7
REMARK    5  A    between atoms: _9  and  _11
REMARK    6  A    between atoms: _11  and  _12
REMARK    7  A    between atoms: _11  and  _14
REMARK    8  A    between atoms: _14  and  _15
REMARK    9  A    between atoms: _15  and  _16
REMARK   10  A    between atoms: _16  and  _17
REMARK   11  A    between atoms: _17  and  _18
REMARK   12  A    between atoms: _22  and  _24
REMARK   13  A    between atoms: _24  and  _25
REMARK   14  A    between atoms: _24  and  _27
REMARK   15  A    between atoms: _27  and  _28
REMARK   16  A    between atoms: _30  and  _32
REMARK   17  A    between atoms: _32  and  _33
REMARK   18  A    between atoms: _32  and  _35
REMARK   19  A    between atoms: _38  and  _40
REMARK   20  A    between atoms: _40  and  _41
REMARK   21  A    between atoms: _40  and  _43
REMARK   22  A    between atoms: _43  and  _44
REMARK   23  A    between atoms: _46  and  _48
REMARK   24  A    between atoms: _48  and  _49
REMARK   25  A    between atoms: _48  and  _51
REMARK   26  A    between atoms: _51  and  _52
REMARK   27  A    between atoms: _57  and  _59
REMARK   28  A    between atoms: _59  and  _60
REMARK   29  A    between atoms: _59  and  _62
REMARK   30  A    between atoms: _62  and  _63
REMARK   31  A    between atoms: _63  and  _64
REMARK   32  A    between atoms: _64  and  _65
REMARK   33  A    between atoms: _74  and  _76
REMARK   34  A    between atoms: _76  and  _77
REMARK   35  A    between atoms: _76  and  _79
REMARK   36  A    between atoms: _79  and  _80
REMARK   37  A    between atoms: _83  and  _85
REMARK   38  A    between atoms: _85  and  _86
REMARK   39  A    between atoms: _85  and  _88
REMARK   40  A    between atoms: _88  and  _89
REMARK   41  A    between atoms: _94  and  _96
REMARK   42  A    between atoms: _96  and  _97
REMARK   43  A    between atoms: _100  and  _102
REMARK   44  A    between atoms: _102  and  _103
REMARK   45  A    between atoms: _105  and  _107
REMARK   46  A    between atoms: _107  and  _108
REMARK   47  A    between atoms: _107  and  _110
REMARK   48  A    between atoms: _110  and  _111
REMARK   49  A    between atoms: _114  and  _116
REMARK   50  A    between atoms: _116  and  _117
REMARK   51  A    between atoms: _120  and  _122
REMARK   52  A    between atoms: _122  and  _123
REMARK   53  A    between atoms: _122  and  _125
REMARK   54  A    between atoms: _125  and  _126
REMARK   55  A    between atoms: _126  and  _127
REMARK   56  A    between atoms: _129  and  _131
REMARK   57  A    between atoms: _131  and  _132
REMARK   58  A    between atoms: _131  and  _134
REMARK   59  A    between atoms: _134  and  _135
REMARK   60  A    between atoms: _135  and  _136
REMARK   61  A    between atoms: _136  and  _137
REMARK   62  A    between atoms: _147  and  _148
REMARK   63  A    between atoms: _153  and  _155
REMARK   64  A    between atoms: _155  and  _156
REMARK   65  A    between atoms: _155  and  _158
REMARK   66  A    between atoms: _158  and  _159
REMARK   67  A    between atoms: _159  and  _160
REMARK   68  A    between atoms: _160  and  _161
REMARK   69  A    between atoms: _171  and  _172
REMARK   70  A    between atoms: _177  and  _179
REMARK   71  A    between atoms: _179  and  _180
REMARK   72  A    between atoms: _182  and  _184
REMARK   73  A    between atoms: _184  and  _185
REMARK   74  A    between atoms: _184  and  _187
REMARK   75  A    between atoms: _187  and  _188
REMARK   76  A    between atoms: _190  and  _192
REMARK   77  A    between atoms: _192  and  _193
REMARK   78  A    between atoms: _192  and  _195
REMARK   79  A    between atoms: _198  and  _200
REMARK   80  A    between atoms: _200  and  _201
REMARK   81  A    between atoms: _200  and  _203
REMARK   82  A    between atoms: _203  and  _204
REMARK   83  A    between atoms: _206  and  _208
REMARK   84  A    between atoms: _208  and  _209
REMARK   85  A    between atoms: _208  and  _211
REMARK   86  A    between atoms: _211  and  _212
REMARK   87  A    between atoms: _214  and  _216
REMARK   88  A    between atoms: _216  and  _217
REMARK   89  A    between atoms: _216  and  _219
REMARK   90  A    between atoms: _219  and  _220
REMARK   91  A    between atoms: _220  and  _221
REMARK   92  A    between atoms: _226  and  _228
REMARK   93  A    between atoms: _228  and  _229
REMARK   94  A    between atoms: _228  and  _231
REMARK   95  A    between atoms: _231  and  _232
REMARK   96  A    between atoms: _238  and  _240
REMARK   97  A    between atoms: _240  and  _241
REMARK   98  A    between atoms: _240  and  _243
REMARK   99  A    between atoms: _243  and  _244
REMARK  100  A    between atoms: _247  and  _249
REMARK  101  A    between atoms: _249  and  _250
REMARK  102  A    between atoms: _249  and  _252
REMARK  103  A    between atoms: _252  and  _253
REMARK  104  A    between atoms: _256  and  _258
REMARK  105  A    between atoms: _258  and  _259
REMARK  106  A    between atoms: _262  and  _264
REMARK  107  A    between atoms: _264  and  _265
REMARK  108  A    between atoms: _264  and  _267
REMARK  109  A    between atoms: _267  and  _268
REMARK  110  A    between atoms: _268  and  _269
REMARK  111  A    between atoms: _271  and  _273
REMARK  112  A    between atoms: _273  and  _274
REMARK  113  A    between atoms: _273  and  _276
REMARK  114  A    between atoms: _276  and  _277
REMARK  115  A    between atoms: _280  and  _282
REMARK  116  A    between atoms: _282  and  _283
REMARK  117  A    between atoms: _282  and  _285
REMARK  118  A    between atoms: _288  and  _290
REMARK  119  A    between atoms: _290  and  _291
REMARK  120  A    between atoms: _290  and  _293
REMARK  121  A    between atoms: _293  and  _294
REMARK  122  A    between atoms: _296  and  _298
REMARK  123  A    between atoms: _298  and  _299
REMARK  124  A    between atoms: _298  and  _301
REMARK  125  A    between atoms: _301  and  _302
REMARK  126  A    between atoms: _302  and  _303
REMARK  127  A    between atoms: _303  and  _304
REMARK  128  A    between atoms: _304  and  _305
REMARK  129  A    between atoms: _310  and  _311
REMARK  130  A    between atoms: _316  and  _318
REMARK  131  A    between atoms: _318  and  _319
REMARK  132  A    between atoms: _318  and  _321
REMARK  133  A    between atoms: _321  and  _322
REMARK  134  A    between atoms: _327  and  _328
REMARK  135  A    between atoms: _330  and  _332
REMARK  136  A    between atoms: _332  and  _333
REMARK  137  A    between atoms: _332  and  _335
REMARK  138  A    between atoms: _335  and  _336
REMARK  139  A    between atoms: _339  and  _341
REMARK  140  A    between atoms: _341  and  _342
REMARK  141  A    between atoms: _341  and  _344
REMARK  142  A    between atoms: _344  and  _345
REMARK  143  A    between atoms: _348  and  _350
REMARK  144  A    between atoms: _350  and  _351
REMARK  145  A    between atoms: _350  and  _353
REMARK  146  A    between atoms: _353  and  _354
REMARK  147  A    between atoms: _357  and  _359
REMARK  148  A    between atoms: _359  and  _360
REMARK  149  A    between atoms: _359  and  _362
REMARK  150  A    between atoms: _362  and  _363
REMARK  151  A    between atoms: _366  and  _368
REMARK  152  A    between atoms: _368  and  _369
REMARK  153  A    between atoms: _368  and  _371
REMARK  154  A    between atoms: _371  and  _372
REMARK  155  A    between atoms: _374  and  _376
REMARK  156  A    between atoms: _376  and  _377
REMARK  157  A    between atoms: _376  and  _379
REMARK  158  A    between atoms: _379  and  _380
REMARK  159  A    between atoms: _385  and  _386
REMARK  160  A    between atoms: _388  and  _390
REMARK  161  A    between atoms: _390  and  _391
REMARK  162  A    between atoms: _390  and  _393
REMARK  163  A    between atoms: _393  and  _394
REMARK  164  A    between atoms: _397  and  _399
REMARK  165  A    between atoms: _399  and  _400
REMARK  166  A    between atoms: _399  and  _402
REMARK  167  A    between atoms: _402  and  _403
REMARK  168  A    between atoms: _408  and  _410
REMARK  169  A    between atoms: _410  and  _411
REMARK  170  A    between atoms: _410  and  _413
REMARK  171  A    between atoms: _413  and  _414
REMARK  172  A    between atoms: _418  and  _419
REMARK  173  A    between atoms: _424  and  _426
REMARK  174  A    between atoms: _426  and  _427
REMARK  175  A    between atoms: _426  and  _429
REMARK  176  A    between atoms: _429  and  _430
REMARK  177  A    between atoms: _433  and  _435
REMARK  178  A    between atoms: _435  and  _436
REMARK  179  A    between atoms: _439  and  _441
REMARK  180  A    between atoms: _441  and  _442
REMARK  181  A    between atoms: _441  and  _444
REMARK  182  A    between atoms: _444  and  _445
REMARK  183  A    between atoms: _445  and  _446
REMARK  184  A    between atoms: _448  and  _450
REMARK  185  A    between atoms: _450  and  _451
REMARK  186  A    between atoms: _450  and  _453
REMARK  187  A    between atoms: _453  and  _454
REMARK  188  A    between atoms: _459  and  _461
REMARK  189  A    between atoms: _461  and  _462
REMARK  190  A    between atoms: _461  and  _464
REMARK  191  A    between atoms: _464  and  _465
REMARK  192  A    between atoms: _475  and  _477
REMARK  193  A    between atoms: _477  and  _478
REMARK  194  A    between atoms: _477  and  _480
REMARK  195  A    between atoms: _483  and  _485
REMARK  196  A    between atoms: _485  and  _486
REMARK  197  A    between atoms: _485  and  _488
REMARK  198  A    between atoms: _488  and  _489
REMARK  199  A    between atoms: _489  and  _490
REMARK  200  A    between atoms: _490  and  _491
REMARK  201  A    between atoms: _491  and  _492
REMARK  202  A    between atoms: _496  and  _498
REMARK  203  A    between atoms: _498  and  _499
REMARK  204  A    between atoms: _498  and  _501
REMARK  205  A    between atoms: _501  and  _502
REMARK  206  A    between atoms: _502  and  _503
REMARK  207  A    between atoms: _506  and  _508
REMARK  208  A    between atoms: _508  and  _509
REMARK  209  A    between atoms: _508  and  _511
REMARK  210  A    between atoms: _511  and  _512
REMARK  211  A    between atoms: _515  and  _517
REMARK  212  A    between atoms: _517  and  _518
REMARK  213  A    between atoms: _517  and  _520
REMARK  214  A    between atoms: _520  and  _521
REMARK  215  A    between atoms: _521  and  _522
REMARK  216  A    between atoms: _522  and  _523
REMARK  217  A    between atoms: _532  and  _534
REMARK  218  A    between atoms: _534  and  _535
REMARK  219  A    between atoms: _534  and  _537
REMARK  220  A    between atoms: _537  and  _538
REMARK  221  A    between atoms: _543  and  _545
REMARK  222  A    between atoms: _545  and  _546
REMARK  223  A    between atoms: _545  and  _548
REMARK  224  A    between atoms: _548  and  _549
REMARK  225  A    between atoms: _552  and  _554
REMARK  226  A    between atoms: _554  and  _555
REMARK  227  A    between atoms: _554  and  _557
REMARK  228  A    between atoms: _557  and  _558
REMARK  229  A    between atoms: _563  and  _565
REMARK  230  A    between atoms: _565  and  _566
REMARK  231  A    between atoms: _565  and  _568
REMARK  232  A    between atoms: _568  and  _569
REMARK  233  A    between atoms: _569  and  _570
REMARK  234  A    between atoms: _570  and  _571
REMARK  235  A    between atoms: _580  and  _582
REMARK  236  A    between atoms: _582  and  _583
REMARK  237  A    between atoms: _582  and  _585
REMARK  238  A    between atoms: _585  and  _586
REMARK  239  A    between atoms: _586  and  _587
REMARK  240  A    between atoms: _589  and  _591
REMARK  241  A    between atoms: _591  and  _592
REMARK  242  A    between atoms: _591  and  _594
REMARK  243  A    between atoms: _594  and  _595
REMARK  244  A    between atoms: _595  and  _596
REMARK  245  A    between atoms: _598  and  _600
REMARK  246  A    between atoms: _600  and  _601
REMARK  247  A    between atoms: _600  and  _603
REMARK  248  A    between atoms: _603  and  _604
REMARK  249  A    between atoms: _604  and  _605
REMARK  250  A    between atoms: _605  and  _606
REMARK  251  A    between atoms: _606  and  _607
REMARK  252  A    between atoms: _611  and  _613
REMARK  253  A    between atoms: _613  and  _614
REMARK  254  A    between atoms: _613  and  _616
REMARK  255  A    between atoms: _616  and  _617
REMARK                            x       y       z     vdW  Elec       q    Type
REMARK                         _______ _______ _______ _____ _____    ______ ____
ROOT
ATOM      1  O   HOH     1      58.927  13.690  31.039  0.00  0.00    +0.000 OA
ENDROOT
TORSDOF 0
REMARK  Name = ../refined-set-2016/1x8t/1x8t_pocket.pdb
REMARK  255 active torsions:
REMARK  status: ('A' for Active; 'I' for Inactive)
REMARK    1  A    between atoms: _1  and  _3
REMARK    2  A    between atoms: _3  and  _4
REMARK    3  A    between atoms: _3  and  _6
REMARK    4  A    between atoms: _6  and  _7
REMARK    5  A    between atoms: _9  and  _11
REMARK    6  A    between atoms: _11  and  _12
REMARK    7  A    between atoms: _11  and  _14
REMARK    8  A    between atoms: _14  and  _15
REMARK    9  A    between atoms: _15  and  _16
REMARK   10  A    between atoms: _16  and  _17
REMARK   11  A    between atoms: _17  and  _18
REMARK   12  A    between atoms: _22  and  _24
REMARK   13  A    between atoms: _24  and  _25
REMARK   14  A    between atoms: _24  and  _27
REMARK   15  A    between atoms: _27  and  _28
REMARK   16  A    between atoms: _30  and  _32
REMARK   17  A    between atoms: _32  and  _33
REMARK   18  A    between atoms: _32  and  _35
REMARK   19  A    between atoms: _38  and  _40
REMARK   20  A    between atoms: _40  and  _41
REMARK   21  A    between atoms: _40  and  _43
REMARK   22  A    between atoms: _43  and  _44
REMARK   23  A    between atoms: _46  and  _48
REMARK   24  A    between atoms: _48  and  _49
REMARK   25  A    between atoms: _48  and  _51
REMARK   26  A    between atoms: _51  and  _52
REMARK   27  A    between atoms: _57  and  _59
REMARK   28  A    between atoms: _59  and  _60
REMARK   29  A    between atoms: _59  and  _62
REMARK   30  A    between atoms: _62  and  _63
REMARK   31  A    between atoms: _63  and  _64
REMARK   32  A    between atoms: _64  and  _65
REMARK   33  A    between atoms: _74  and  _76
REMARK   34  A    between atoms: _76  and  _77
REMARK   35  A    between atoms: _76  and  _79
REMARK   36  A    between atoms: _79  and  _80
REMARK   37  A    between atoms: _83  and  _85
REMARK   38  A    between atoms: _85  and  _86
REMARK   39  A    between atoms: _85  and  _88
REMARK   40  A    between atoms: _88  and  _89
REMARK   41  A    between atoms: _94  and  _96
REMARK   42  A    between atoms: _96  and  _97
REMARK   43  A    between atoms: _100  and  _102
REMARK   44  A    between atoms: _102  and  _103
REMARK   45  A    between atoms: _105  and  _107
REMARK   46  A    between atoms: _107  and  _108
REMARK   47  A    between atoms: _107  and  _110
REMARK   48  A    between atoms: _110  and  _111
REMARK   49  A    between atoms: _114  and  _116
REMARK   50  A    between atoms: _116  and  _117
REMARK   51  A    between atoms: _120  and  _122
REMARK   52  A    between atoms: _122  and  _123
REMARK   53  A    between atoms: _122  and  _125
REMARK   54  A    between atoms: _125  and  _126
REMARK   55  A    between atoms: _126  and  _127
REMARK   56  A    between atoms: _129  and  _131
REMARK   57  A    between atoms: _131  and  _132
REMARK   58  A    between atoms: _131  and  _134
REMARK   59  A    between atoms: _134  and  _135
REMARK   60  A    between atoms: _135  and  _136
REMARK   61  A    between atoms: _136  and  _137
REMARK   62  A    between atoms: _147  and  _148
REMARK   63  A    between atoms: _153  and  _155
REMARK   64  A    between atoms: _155  and  _156
REMARK   65  A    between atoms: _155  and  _158
REMARK   66  A    between atoms: _158  and  _159
REMARK   67  A    between atoms: _159  and  _160
REMARK   68  A    between atoms: _160  and  _161
REMARK   69  A    between atoms: _171  and  _172
REMARK   70  A    between atoms: _177  and  _179
REMARK   71  A    between atoms: _179  and  _180
REMARK   72  A    between atoms: _182  and  _184
REMARK   73  A    between atoms: _184  and  _185
REMARK   74  A    between atoms: _184  and  _187
REMARK   75  A    between atoms: _187  and  _188
REMARK   76  A    between atoms: _190  and  _192
REMARK   77  A    between atoms: _192  and  _193
REMARK   78  A    between atoms: _192  and  _195
REMARK   79  A    between atoms: _198  and  _200
REMARK   80  A    between atoms: _200  and  _201
REMARK   81  A    between atoms: _200  and  _203
REMARK   82  A    between atoms: _203  and  _204
REMARK   83  A    between atoms: _206  and  _208
REMARK   84  A    between atoms: _208  and  _209
REMARK   85  A    between atoms: _208  and  _211
REMARK   86  A    between atoms: _211  and  _212
REMARK   87  A    between atoms: _214  and  _216
REMARK   88  A    between atoms: _216  and  _217
REMARK   89  A    between atoms: _216  and  _219
REMARK   90  A    between atoms: _219  and  _220
REMARK   91  A    between atoms: _220  and  _221
REMARK   92  A    between atoms: _226  and  _228
REMARK   93  A    between atoms: _228  and  _229
REMARK   94  A    between atoms: _228  and  _231
REMARK   95  A    between atoms: _231  and  _232
REMARK   96  A    between atoms: _238  and  _240
REMARK   97  A    between atoms: _240  and  _241
REMARK   98  A    between atoms: _240  and  _243
REMARK   99  A    between atoms: _243  and  _244
REMARK  100  A    between atoms: _247  and  _249
REMARK  101  A    between atoms: _249  and  _250
REMARK  102  A    between atoms: _249  and  _252
REMARK  103  A    between atoms: _252  and  _253
REMARK  104  A    between atoms: _256  and  _258
REMARK  105  A    between atoms: _258  and  _259
REMARK  106  A    between atoms: _262  and  _264
REMARK  107  A    between atoms: _264  and  _265
REMARK  108  A    between atoms: _264  and  _267
REMARK  109  A    between atoms: _267  and  _268
REMARK  110  A    between atoms: _268  and  _269
REMARK  111  A    between atoms: _271  and  _273
REMARK  112  A    between atoms: _273  and  _274
REMARK  113  A    between atoms: _273  and  _276
REMARK  114  A    between atoms: _276  and  _277
REMARK  115  A    between atoms: _280  and  _282
REMARK  116  A    between atoms: _282  and  _283
REMARK  117  A    between atoms: _282  and  _285
REMARK  118  A    between atoms: _288  and  _290
REMARK  119  A    between atoms: _290  and  _291
REMARK  120  A    between atoms: _290  and  _293
REMARK  121  A    between atoms: _293  and  _294
REMARK  122  A    between atoms: _296  and  _298
REMARK  123  A    between atoms: _298  and  _299
REMARK  124  A    between atoms: _298  and  _301
REMARK  125  A    between atoms: _301  and  _302
REMARK  126  A    between atoms: _302  and  _303
REMARK  127  A    between atoms: _303  and  _304
REMARK  128  A    between atoms: _304  and  _305
REMARK  129  A    between atoms: _310  and  _311
REMARK  130  A    between atoms: _316  and  _318
REMARK  131  A    between atoms: _318  and  _319
REMARK  132  A    between atoms: _318  and  _321
REMARK  133  A    between atoms: _321  and  _322
REMARK  134  A    between atoms: _327  and  _328
REMARK  135  A    between atoms: _330  and  _332
REMARK  136  A    between atoms: _332  and  _333
REMARK  137  A    between atoms: _332  and  _335
REMARK  138  A    between atoms: _335  and  _336
REMARK  139  A    between atoms: _339  and  _341
REMARK  140  A    between atoms: _341  and  _342
REMARK  141  A    between atoms: _341  and  _344
REMARK  142  A    between atoms: _344  and  _345
REMARK  143  A    between atoms: _348  and  _350
REMARK  144  A    between atoms: _350  and  _351
REMARK  145  A    between atoms: _350  and  _353
REMARK  146  A    between atoms: _353  and  _354
REMARK  147  A    between atoms: _357  and  _359
REMARK  148  A    between atoms: _359  and  _360
REMARK  149  A    between atoms: _359  and  _362
REMARK  150  A    between atoms: _362  and  _363
REMARK  151  A    between atoms: _366  and  _368
REMARK  152  A    between atoms: _368  and  _369
REMARK  153  A    between atoms: _368  and  _371
REMARK  154  A    between atoms: _371  and  _372
REMARK  155  A    between atoms: _374  and  _376
REMARK  156  A    between atoms: _376  and  _377
REMARK  157  A    between atoms: _376  and  _379
REMARK  158  A    between atoms: _379  and  _380
REMARK  159  A    between atoms: _385  and  _386
REMARK  160  A    between atoms: _388  and  _390
REMARK  161  A    between atoms: _390  and  _391
REMARK  162  A    between atoms: _390  and  _393
REMARK  163  A    between atoms: _393  and  _394
REMARK  164  A    between atoms: _397  and  _399
REMARK  165  A    between atoms: _399  and  _400
REMARK  166  A    between atoms: _399  and  _402
REMARK  167  A    between atoms: _402  and  _403
REMARK  168  A    between atoms: _408  and  _410
REMARK  169  A    between atoms: _410  and  _411
REMARK  170  A    between atoms: _410  and  _413
REMARK  171  A    between atoms: _413  and  _414
REMARK  172  A    between atoms: _418  and  _419
REMARK  173  A    between atoms: _424  and  _426
REMARK  174  A    between atoms: _426  and  _427
REMARK  175  A    between atoms: _426  and  _429
REMARK  176  A    between atoms: _429  and  _430
REMARK  177  A    between atoms: _433  and  _435
REMARK  178  A    between atoms: _435  and  _436
REMARK  179  A    between atoms: _439  and  _441
REMARK  180  A    between atoms: _441  and  _442
REMARK  181  A    between atoms: _441  and  _444
REMARK  182  A    between atoms: _444  and  _445
REMARK  183  A    between atoms: _445  and  _446
REMARK  184  A    between atoms: _448  and  _450
REMARK  185  A    between atoms: _450  and  _451
REMARK  186  A    between atoms: _450  and  _453
REMARK  187  A    between atoms: _453  and  _454
REMARK  188  A    between atoms: _459  and  _461
REMARK  189  A    between atoms: _461  and  _462
REMARK  190  A    between atoms: _461  and  _464
REMARK  191  A    between atoms: _464  and  _465
REMARK  192  A    between atoms: _475  and  _477
REMARK  193  A    between atoms: _477  and  _478
REMARK  194  A    between atoms: _477  and  _480
REMARK  195  A    between atoms: _483  and  _485
REMARK  196  A    between atoms: _485  and  _486
REMARK  197  A    between atoms: _485  and  _488
REMARK  198  A    between atoms: _488  and  _489
REMARK  199  A    between atoms: _489  and  _490
REMARK  200  A    between atoms: _490  and  _491
REMARK  201  A    between atoms: _491  and  _492
REMARK  202  A    between atoms: _496  and  _498
REMARK  203  A    between atoms: _498  and  _499
REMARK  204  A    between atoms: _498  and  _501
REMARK  205  A    between atoms: _501  and  _502
REMARK  206  A    between atoms: _502  and  _503
REMARK  207  A    between atoms: _506  and  _508
REMARK  208  A    between atoms: _508  and  _509
REMARK  209  A    between atoms: _508  and  _511
REMARK  210  A    between atoms: _511  and  _512
REMARK  211  A    between atoms: _515  and  _517
REMARK  212  A    between atoms: _517  and  _518
REMARK  213  A    between atoms: _517  and  _520
REMARK  214  A    between atoms: _520  and  _521
REMARK  215  A    between atoms: _521  and  _522
REMARK  216  A    between atoms: _522  and  _523
REMARK  217  A    between atoms: _532  and  _534
REMARK  218  A    between atoms: _534  and  _535
REMARK  219  A    between atoms: _534  and  _537
REMARK  220  A    between atoms: _537  and  _538
REMARK  221  A    between atoms: _543  and  _545
REMARK  222  A    between atoms: _545  and  _546
REMARK  223  A    between atoms: _545  and  _548
REMARK  224  A    between atoms: _548  and  _549
REMARK  225  A    between atoms: _552  and  _554
REMARK  226  A    between atoms: _554  and  _555
REMARK  227  A    between atoms: _554  and  _557
REMARK  228  A    between atoms: _557  and  _558
REMARK  229  A    between atoms: _563  and  _565
REMARK  230  A    between atoms: _565  and  _566
REMARK  231  A    between atoms: _565  and  _568
REMARK  232  A    between atoms: _568  and  _569
REMARK  233  A    between atoms: _569  and  _570
REMARK  234  A    between atoms: _570  and  _571
REMARK  235  A    between atoms: _580  and  _582
REMARK  236  A    between atoms: _582  and  _583
REMARK  237  A    between atoms: _582  and  _585
REMARK  238  A    between atoms: _585  and  _586
REMARK  239  A    between atoms: _586  and  _587
REMARK  240  A    between atoms: _589  and  _591
REMARK  241  A    between atoms: _591  and  _592
REMARK  242  A    between atoms: _591  and  _594
REMARK  243  A    between atoms: _594  and  _595
REMARK  244  A    between atoms: _595  and  _596
REMARK  245  A    between atoms: _598  and  _600
REMARK  246  A    between atoms: _600  and  _601
REMARK  247  A    between atoms: _600  and  _603
REMARK  248  A    between atoms: _603  and  _604
REMARK  249  A    between atoms: _604  and  _605
REMARK  250  A    between atoms: _605  and  _606
REMARK  251  A    between atoms: _606  and  _607
REMARK  252  A    between atoms: _611  and  _613
REMARK  253  A    between atoms: _613  and  _614
REMARK  254  A    between atoms: _613  and  _616
REMARK  255  A    between atoms: _616  and  _617
REMARK                            x       y       z     vdW  Elec       q    Type
REMARK                         _______ _______ _______ _____ _____    ______ ____
ROOT
ATOM      1  O   HOH     1      62.575   8.111  25.615  0.00  0.00    +0.000 OA
ENDROOT
TORSDOF 0
REMARK  Name = ../refined-set-2016/1x8t/1x8t_pocket.pdb
REMARK  255 active torsions:
REMARK  status: ('A' for Active; 'I' for Inactive)
REMARK    1  A    between atoms: _1  and  _3
REMARK    2  A    between atoms: _3  and  _4
REMARK    3  A    between atoms: _3  and  _6
REMARK    4  A    between atoms: _6  and  _7
REMARK    5  A    between atoms: _9  and  _11
REMARK    6  A    between atoms: _11  and  _12
REMARK    7  A    between atoms: _11  and  _14
REMARK    8  A    between atoms: _14  and  _15
REMARK    9  A    between atoms: _15  and  _16
REMARK   10  A    between atoms: _16  and  _17
REMARK   11  A    between atoms: _17  and  _18
REMARK   12  A    between atoms: _22  and  _24
REMARK   13  A    between atoms: _24  and  _25
REMARK   14  A    between atoms: _24  and  _27
REMARK   15  A    between atoms: _27  and  _28
REMARK   16  A    between atoms: _30  and  _32
REMARK   17  A    between atoms: _32  and  _33
REMARK   18  A    between atoms: _32  and  _35
REMARK   19  A    between atoms: _38  and  _40
REMARK   20  A    between atoms: _40  and  _41
REMARK   21  A    between atoms: _40  and  _43
REMARK   22  A    between atoms: _43  and  _44
REMARK   23  A    between atoms: _46  and  _48
REMARK   24  A    between atoms: _48  and  _49
REMARK   25  A    between atoms: _48  and  _51
REMARK   26  A    between atoms: _51  and  _52
REMARK   27  A    between atoms: _57  and  _59
REMARK   28  A    between atoms: _59  and  _60
REMARK   29  A    between atoms: _59  and  _62
REMARK   30  A    between atoms: _62  and  _63
REMARK   31  A    between atoms: _63  and  _64
REMARK   32  A    between atoms: _64  and  _65
REMARK   33  A    between atoms: _74  and  _76
REMARK   34  A    between atoms: _76  and  _77
REMARK   35  A    between atoms: _76  and  _79
REMARK   36  A    between atoms: _79  and  _80
REMARK   37  A    between atoms: _83  and  _85
REMARK   38  A    between atoms: _85  and  _86
REMARK   39  A    between atoms: _85  and  _88
REMARK   40  A    between atoms: _88  and  _89
REMARK   41  A    between atoms: _94  and  _96
REMARK   42  A    between atoms: _96  and  _97
REMARK   43  A    between atoms: _100  and  _102
REMARK   44  A    between atoms: _102  and  _103
REMARK   45  A    between atoms: _105  and  _107
REMARK   46  A    between atoms: _107  and  _108
REMARK   47  A    between atoms: _107  and  _110
REMARK   48  A    between atoms: _110  and  _111
REMARK   49  A    between atoms: _114  and  _116
REMARK   50  A    between atoms: _116  and  _117
REMARK   51  A    between atoms: _120  and  _122
REMARK   52  A    between atoms: _122  and  _123
REMARK   53  A    between atoms: _122  and  _125
REMARK   54  A    between atoms: _125  and  _126
REMARK   55  A    between atoms: _126  and  _127
REMARK   56  A    between atoms: _129  and  _131
REMARK   57  A    between atoms: _131  and  _132
REMARK   58  A    between atoms: _131  and  _134
REMARK   59  A    between atoms: _134  and  _135
REMARK   60  A    between atoms: _135  and  _136
REMARK   61  A    between atoms: _136  and  _137
REMARK   62  A    between atoms: _147  and  _148
REMARK   63  A    between atoms: _153  and  _155
REMARK   64  A    between atoms: _155  and  _156
REMARK   65  A    between atoms: _155  and  _158
REMARK   66  A    between atoms: _158  and  _159
REMARK   67  A    between atoms: _159  and  _160
REMARK   68  A    between atoms: _160  and  _161
REMARK   69  A    between atoms: _171  and  _172
REMARK   70  A    between atoms: _177  and  _179
REMARK   71  A    between atoms: _179  and  _180
REMARK   72  A    between atoms: _182  and  _184
REMARK   73  A    between atoms: _184  and  _185
REMARK   74  A    between atoms: _184  and  _187
REMARK   75  A    between atoms: _187  and  _188
REMARK   76  A    between atoms: _190  and  _192
REMARK   77  A    between atoms: _192  and  _193
REMARK   78  A    between atoms: _192  and  _195
REMARK   79  A    between atoms: _198  and  _200
REMARK   80  A    between atoms: _200  and  _201
REMARK   81  A    between atoms: _200  and  _203
REMARK   82  A    between atoms: _203  and  _204
REMARK   83  A    between atoms: _206  and  _208
REMARK   84  A    between atoms: _208  and  _209
REMARK   85  A    between atoms: _208  and  _211
REMARK   86  A    between atoms: _211  and  _212
REMARK   87  A    between atoms: _214  and  _216
REMARK   88  A    between atoms: _216  and  _217
REMARK   89  A    between atoms: _216  and  _219
REMARK   90  A    between atoms: _219  and  _220
REMARK   91  A    between atoms: _220  and  _221
REMARK   92  A    between atoms: _226  and  _228
REMARK   93  A    between atoms: _228  and  _229
REMARK   94  A    between atoms: _228  and  _231
REMARK   95  A    between atoms: _231  and  _232
REMARK   96  A    between atoms: _238  and  _240
REMARK   97  A    between atoms: _240  and  _241
REMARK   98  A    between atoms: _240  and  _243
REMARK   99  A    between atoms: _243  and  _244
REMARK  100  A    between atoms: _247  and  _249
REMARK  101  A    between atoms: _249  and  _250
REMARK  102  A    between atoms: _249  and  _252
REMARK  103  A    between atoms: _252  and  _253
REMARK  104  A    between atoms: _256  and  _258
REMARK  105  A    between atoms: _258  and  _259
REMARK  106  A    between atoms: _262  and  _264
REMARK  107  A    between atoms: _264  and  _265
REMARK  108  A    between atoms: _264  and  _267
REMARK  109  A    between atoms: _267  and  _268
REMARK  110  A    between atoms: _268  and  _269
REMARK  111  A    between atoms: _271  and  _273
REMARK  112  A    between atoms: _273  and  _274
REMARK  113  A    between atoms: _273  and  _276
REMARK  114  A    between atoms: _276  and  _277
REMARK  115  A    between atoms: _280  and  _282
REMARK  116  A    between atoms: _282  and  _283
REMARK  117  A    between atoms: _282  and  _285
REMARK  118  A    between atoms: _288  and  _290
REMARK  119  A    between atoms: _290  and  _291
REMARK  120  A    between atoms: _290  and  _293
REMARK  121  A    between atoms: _293  and  _294
REMARK  122  A    between atoms: _296  and  _298
REMARK  123  A    between atoms: _298  and  _299
REMARK  124  A    between atoms: _298  and  _301
REMARK  125  A    between atoms: _301  and  _302
REMARK  126  A    between atoms: _302  and  _303
REMARK  127  A    between atoms: _303  and  _304
REMARK  128  A    between atoms: _304  and  _305
REMARK  129  A    between atoms: _310  and  _311
REMARK  130  A    between atoms: _316  and  _318
REMARK  131  A    between atoms: _318  and  _319
REMARK  132  A    between atoms: _318  and  _321
REMARK  133  A    between atoms: _321  and  _322
REMARK  134  A    between atoms: _327  and  _328
REMARK  135  A    between atoms: _330  and  _332
REMARK  136  A    between atoms: _332  and  _333
REMARK  137  A    between atoms: _332  and  _335
REMARK  138  A    between atoms: _335  and  _336
REMARK  139  A    between atoms: _339  and  _341
REMARK  140  A    between atoms: _341  and  _342
REMARK  141  A    between atoms: _341  and  _344
REMARK  142  A    between atoms: _344  and  _345
REMARK  143  A    between atoms: _348  and  _350
REMARK  144  A    between atoms: _350  and  _351
REMARK  145  A    between atoms: _350  and  _353
REMARK  146  A    between atoms: _353  and  _354
REMARK  147  A    between atoms: _357  and  _359
REMARK  148  A    between atoms: _359  and  _360
REMARK  149  A    between atoms: _359  and  _362
REMARK  150  A    between atoms: _362  and  _363
REMARK  151  A    between atoms: _366  and  _368
REMARK  152  A    between atoms: _368  and  _369
REMARK  153  A    between atoms: _368  and  _371
REMARK  154  A    between atoms: _371  and  _372
REMARK  155  A    between atoms: _374  and  _376
REMARK  156  A    between atoms: _376  and  _377
REMARK  157  A    between atoms: _376  and  _379
REMARK  158  A    between atoms: _379  and  _380
REMARK  159  A    between atoms: _385  and  _386
REMARK  160  A    between atoms: _388  and  _390
REMARK  161  A    between atoms: _390  and  _391
REMARK  162  A    between atoms: _390  and  _393
REMARK  163  A    between atoms: _393  and  _394
REMARK  164  A    between atoms: _397  and  _399
REMARK  165  A    between atoms: _399  and  _400
REMARK  166  A    between atoms: _399  and  _402
REMARK  167  A    between atoms: _402  and  _403
REMARK  168  A    between atoms: _408  and  _410
REMARK  169  A    between atoms: _410  and  _411
REMARK  170  A    between atoms: _410  and  _413
REMARK  171  A    between atoms: _413  and  _414
REMARK  172  A    between atoms: _418  and  _419
REMARK  173  A    between atoms: _424  and  _426
REMARK  174  A    between atoms: _426  and  _427
REMARK  175  A    between atoms: _426  and  _429
REMARK  176  A    between atoms: _429  and  _430
REMARK  177  A    between atoms: _433  and  _435
REMARK  178  A    between atoms: _435  and  _436
REMARK  179  A    between atoms: _439  and  _441
REMARK  180  A    between atoms: _441  and  _442
REMARK  181  A    between atoms: _441  and  _444
REMARK  182  A    between atoms: _444  and  _445
REMARK  183  A    between atoms: _445  and  _446
REMARK  184  A    between atoms: _448  and  _450
REMARK  185  A    between atoms: _450  and  _451
REMARK  186  A    between atoms: _450  and  _453
REMARK  187  A    between atoms: _453  and  _454
REMARK  188  A    between atoms: _459  and  _461
REMARK  189  A    between atoms: _461  and  _462
REMARK  190  A    between atoms: _461  and  _464
REMARK  191  A    between atoms: _464  and  _465
REMARK  192  A    between atoms: _475  and  _477
REMARK  193  A    between atoms: _477  and  _478
REMARK  194  A    between atoms: _477  and  _480
REMARK  195  A    between atoms: _483  and  _485
REMARK  196  A    between atoms: _485  and  _486
REMARK  197  A    between atoms: _485  and  _488
REMARK  198  A    between atoms: _488  and  _489
REMARK  199  A    between atoms: _489  and  _490
REMARK  200  A    between atoms: _490  and  _491
REMARK  201  A    between atoms: _491  and  _492
REMARK  202  A    between atoms: _496  and  _498
REMARK  203  A    between atoms: _498  and  _499
REMARK  204  A    between atoms: _498  and  _501
REMARK  205  A    between atoms: _501  and  _502
REMARK  206  A    between atoms: _502  and  _503
REMARK  207  A    between atoms: _506  and  _508
REMARK  208  A    between atoms: _508  and  _509
REMARK  209  A    between atoms: _508  and  _511
REMARK  210  A    between atoms: _511  and  _512
REMARK  211  A    between atoms: _515  and  _517
REMARK  212  A    between atoms: _517  and  _518
REMARK  213  A    between atoms: _517  and  _520
REMARK  214  A    between atoms: _520  and  _521
REMARK  215  A    between atoms: _521  and  _522
REMARK  216  A    between atoms: _522  and  _523
REMARK  217  A    between atoms: _532  and  _534
REMARK  218  A    between atoms: _534  and  _535
REMARK  219  A    between atoms: _534  and  _537
REMARK  220  A    between atoms: _537  and  _538
REMARK  221  A    between atoms: _543  and  _545
REMARK  222  A    between atoms: _545  and  _546
REMARK  223  A    between atoms: _545  and  _548
REMARK  224  A    between atoms: _548  and  _549
REMARK  225  A    between atoms: _552  and  _554
REMARK  226  A    between atoms: _554  and  _555
REMARK  227  A    between atoms: _554  and  _557
REMARK  228  A    between atoms: _557  and  _558
REMARK  229  A    between atoms: _563  and  _565
REMARK  230  A    between atoms: _565  and  _566
REMARK  231  A    between atoms: _565  and  _568
REMARK  232  A    between atoms: _568  and  _569
REMARK  233  A    between atoms: _569  and  _570
REMARK  234  A    between atoms: _570  and  _571
REMARK  235  A    between atoms: _580  and  _582
REMARK  236  A    between atoms: _582  and  _583
REMARK  237  A    between atoms: _582  and  _585
REMARK  238  A    between atoms: _585  and  _586
REMARK  239  A    between atoms: _586  and  _587
REMARK  240  A    between atoms: _589  and  _591
REMARK  241  A    between atoms: _591  and  _592
REMARK  242  A    between atoms: _591  and  _594
REMARK  243  A    between atoms: _594  and  _595
REMARK  244  A    between atoms: _595  and  _596
REMARK  245  A    between atoms: _598  and  _600
REMARK  246  A    between atoms: _600  and  _601
REMARK  247  A    between atoms: _600  and  _603
REMARK  248  A    between atoms: _603  and  _604
REMARK  249  A    between atoms: _604  and  _605
REMARK  250  A    between atoms: _605  and  _606
REMARK  251  A    between atoms: _606  and  _607
REMARK  252  A    between atoms: _611  and  _613
REMARK  253  A    between atoms: _613  and  _614
REMARK  254  A    between atoms: _613  and  _616
REMARK  255  A    between atoms: _616  and  _617
REMARK                            x       y       z     vdW  Elec       q    Type
REMARK                         _______ _______ _______ _____ _____    ______ ____
ROOT
ATOM      1  O   HOH     1      48.019   8.039  21.735  0.00  0.00    +0.000 OA
ENDROOT
TORSDOF 0
REMARK  Name = ../refined-set-2016/1x8t/1x8t_pocket.pdb
REMARK  255 active torsions:
REMARK  status: ('A' for Active; 'I' for Inactive)
REMARK    1  A    between atoms: _1  and  _3
REMARK    2  A    between atoms: _3  and  _4
REMARK    3  A    between atoms: _3  and  _6
REMARK    4  A    between atoms: _6  and  _7
REMARK    5  A    between atoms: _9  and  _11
REMARK    6  A    between atoms: _11  and  _12
REMARK    7  A    between atoms: _11  and  _14
REMARK    8  A    between atoms: _14  and  _15
REMARK    9  A    between atoms: _15  and  _16
REMARK   10  A    between atoms: _16  and  _17
REMARK   11  A    between atoms: _17  and  _18
REMARK   12  A    between atoms: _22  and  _24
REMARK   13  A    between atoms: _24  and  _25
REMARK   14  A    between atoms: _24  and  _27
REMARK   15  A    between atoms: _27  and  _28
REMARK   16  A    between atoms: _30  and  _32
REMARK   17  A    between atoms: _32  and  _33
REMARK   18  A    between atoms: _32  and  _35
REMARK   19  A    between atoms: _38  and  _40
REMARK   20  A    between atoms: _40  and  _41
REMARK   21  A    between atoms: _40  and  _43
REMARK   22  A    between atoms: _43  and  _44
REMARK   23  A    between atoms: _46  and  _48
REMARK   24  A    between atoms: _48  and  _49
REMARK   25  A    between atoms: _48  and  _51
REMARK   26  A    between atoms: _51  and  _52
REMARK   27  A    between atoms: _57  and  _59
REMARK   28  A    between atoms: _59  and  _60
REMARK   29  A    between atoms: _59  and  _62
REMARK   30  A    between atoms: _62  and  _63
REMARK   31  A    between atoms: _63  and  _64
REMARK   32  A    between atoms: _64  and  _65
REMARK   33  A    between atoms: _74  and  _76
REMARK   34  A    between atoms: _76  and  _77
REMARK   35  A    between atoms: _76  and  _79
REMARK   36  A    between atoms: _79  and  _80
REMARK   37  A    between atoms: _83  and  _85
REMARK   38  A    between atoms: _85  and  _86
REMARK   39  A    between atoms: _85  and  _88
REMARK   40  A    between atoms: _88  and  _89
REMARK   41  A    between atoms: _94  and  _96
REMARK   42  A    between atoms: _96  and  _97
REMARK   43  A    between atoms: _100  and  _102
REMARK   44  A    between atoms: _102  and  _103
REMARK   45  A    between atoms: _105  and  _107
REMARK   46  A    between atoms: _107  and  _108
REMARK   47  A    between atoms: _107  and  _110
REMARK   48  A    between atoms: _110  and  _111
REMARK   49  A    between atoms: _114  and  _116
REMARK   50  A    between atoms: _116  and  _117
REMARK   51  A    between atoms: _120  and  _122
REMARK   52  A    between atoms: _122  and  _123
REMARK   53  A    between atoms: _122  and  _125
REMARK   54  A    between atoms: _125  and  _126
REMARK   55  A    between atoms: _126  and  _127
REMARK   56  A    between atoms: _129  and  _131
REMARK   57  A    between atoms: _131  and  _132
REMARK   58  A    between atoms: _131  and  _134
REMARK   59  A    between atoms: _134  and  _135
REMARK   60  A    between atoms: _135  and  _136
REMARK   61  A    between atoms: _136  and  _137
REMARK   62  A    between atoms: _147  and  _148
REMARK   63  A    between atoms: _153  and  _155
REMARK   64  A    between atoms: _155  and  _156
REMARK   65  A    between atoms: _155  and  _158
REMARK   66  A    between atoms: _158  and  _159
REMARK   67  A    between atoms: _159  and  _160
REMARK   68  A    between atoms: _160  and  _161
REMARK   69  A    between atoms: _171  and  _172
REMARK   70  A    between atoms: _177  and  _179
REMARK   71  A    between atoms: _179  and  _180
REMARK   72  A    between atoms: _182  and  _184
REMARK   73  A    between atoms: _184  and  _185
REMARK   74  A    between atoms: _184  and  _187
REMARK   75  A    between atoms: _187  and  _188
REMARK   76  A    between atoms: _190  and  _192
REMARK   77  A    between atoms: _192  and  _193
REMARK   78  A    between atoms: _192  and  _195
REMARK   79  A    between atoms: _198  and  _200
REMARK   80  A    between atoms: _200  and  _201
REMARK   81  A    between atoms: _200  and  _203
REMARK   82  A    between atoms: _203  and  _204
REMARK   83  A    between atoms: _206  and  _208
REMARK   84  A    between atoms: _208  and  _209
REMARK   85  A    between atoms: _208  and  _211
REMARK   86  A    between atoms: _211  and  _212
REMARK   87  A    between atoms: _214  and  _216
REMARK   88  A    between atoms: _216  and  _217
REMARK   89  A    between atoms: _216  and  _219
REMARK   90  A    between atoms: _219  and  _220
REMARK   91  A    between atoms: _220  and  _221
REMARK   92  A    between atoms: _226  and  _228
REMARK   93  A    between atoms: _228  and  _229
REMARK   94  A    between atoms: _228  and  _231
REMARK   95  A    between atoms: _231  and  _232
REMARK   96  A    between atoms: _238  and  _240
REMARK   97  A    between atoms: _240  and  _241
REMARK   98  A    between atoms: _240  and  _243
REMARK   99  A    between atoms: _243  and  _244
REMARK  100  A    between atoms: _247  and  _249
REMARK  101  A    between atoms: _249  and  _250
REMARK  102  A    between atoms: _249  and  _252
REMARK  103  A    between atoms: _252  and  _253
REMARK  104  A    between atoms: _256  and  _258
REMARK  105  A    between atoms: _258  and  _259
REMARK  106  A    between atoms: _262  and  _264
REMARK  107  A    between atoms: _264  and  _265
REMARK  108  A    between atoms: _264  and  _267
REMARK  109  A    between atoms: _267  and  _268
REMARK  110  A    between atoms: _268  and  _269
REMARK  111  A    between atoms: _271  and  _273
REMARK  112  A    between atoms: _273  and  _274
REMARK  113  A    between atoms: _273  and  _276
REMARK  114  A    between atoms: _276  and  _277
REMARK  115  A    between atoms: _280  and  _282
REMARK  116  A    between atoms: _282  and  _283
REMARK  117  A    between atoms: _282  and  _285
REMARK  118  A    between atoms: _288  and  _290
REMARK  119  A    between atoms: _290  and  _291
REMARK  120  A    between atoms: _290  and  _293
REMARK  121  A    between atoms: _293  and  _294
REMARK  122  A    between atoms: _296  and  _298
REMARK  123  A    between atoms: _298  and  _299
REMARK  124  A    between atoms: _298  and  _301
REMARK  125  A    between atoms: _301  and  _302
REMARK  126  A    between atoms: _302  and  _303
REMARK  127  A    between atoms: _303  and  _304
REMARK  128  A    between atoms: _304  and  _305
REMARK  129  A    between atoms: _310  and  _311
REMARK  130  A    between atoms: _316  and  _318
REMARK  131  A    between atoms: _318  and  _319
REMARK  132  A    between atoms: _318  and  _321
REMARK  133  A    between atoms: _321  and  _322
REMARK  134  A    between atoms: _327  and  _328
REMARK  135  A    between atoms: _330  and  _332
REMARK  136  A    between atoms: _332  and  _333
REMARK  137  A    between atoms: _332  and  _335
REMARK  138  A    between atoms: _335  and  _336
REMARK  139  A    between atoms: _339  and  _341
REMARK  140  A    between atoms: _341  and  _342
REMARK  141  A    between atoms: _341  and  _344
REMARK  142  A    between atoms: _344  and  _345
REMARK  143  A    between atoms: _348  and  _350
REMARK  144  A    between atoms: _350  and  _351
REMARK  145  A    between atoms: _350  and  _353
REMARK  146  A    between atoms: _353  and  _354
REMARK  147  A    between atoms: _357  and  _359
REMARK  148  A    between atoms: _359  and  _360
REMARK  149  A    between atoms: _359  and  _362
REMARK  150  A    between atoms: _362  and  _363
REMARK  151  A    between atoms: _366  and  _368
REMARK  152  A    between atoms: _368  and  _369
REMARK  153  A    between atoms: _368  and  _371
REMARK  154  A    between atoms: _371  and  _372
REMARK  155  A    between atoms: _374  and  _376
REMARK  156  A    between atoms: _376  and  _377
REMARK  157  A    between atoms: _376  and  _379
REMARK  158  A    between atoms: _379  and  _380
REMARK  159  A    between atoms: _385  and  _386
REMARK  160  A    between atoms: _388  and  _390
REMARK  161  A    between atoms: _390  and  _391
REMARK  162  A    between atoms: _390  and  _393
REMARK  163  A    between atoms: _393  and  _394
REMARK  164  A    between atoms: _397  and  _399
REMARK  165  A    between atoms: _399  and  _400
REMARK  166  A    between atoms: _399  and  _402
REMARK  167  A    between atoms: _402  and  _403
REMARK  168  A    between atoms: _408  and  _410
REMARK  169  A    between atoms: _410  and  _411
REMARK  170  A    between atoms: _410  and  _413
REMARK  171  A    between atoms: _413  and  _414
REMARK  172  A    between atoms: _418  and  _419
REMARK  173  A    between atoms: _424  and  _426
REMARK  174  A    between atoms: _426  and  _427
REMARK  175  A    between atoms: _426  and  _429
REMARK  176  A    between atoms: _429  and  _430
REMARK  177  A    between atoms: _433  and  _435
REMARK  178  A    between atoms: _435  and  _436
REMARK  179  A    between atoms: _439  and  _441
REMARK  180  A    between atoms: _441  and  _442
REMARK  181  A    between atoms: _441  and  _444
REMARK  182  A    between atoms: _444  and  _445
REMARK  183  A    between atoms: _445  and  _446
REMARK  184  A    between atoms: _448  and  _450
REMARK  185  A    between atoms: _450  and  _451
REMARK  186  A    between atoms: _450  and  _453
REMARK  187  A    between atoms: _453  and  _454
REMARK  188  A    between atoms: _459  and  _461
REMARK  189  A    between atoms: _461  and  _462
REMARK  190  A    between atoms: _461  and  _464
REMARK  191  A    between atoms: _464  and  _465
REMARK  192  A    between atoms: _475  and  _477
REMARK  193  A    between atoms: _477  and  _478
REMARK  194  A    between atoms: _477  and  _480
REMARK  195  A    between atoms: _483  and  _485
REMARK  196  A    between atoms: _485  and  _486
REMARK  197  A    between atoms: _485  and  _488
REMARK  198  A    between atoms: _488  and  _489
REMARK  199  A    between atoms: _489  and  _490
REMARK  200  A    between atoms: _490  and  _491
REMARK  201  A    between atoms: _491  and  _492
REMARK  202  A    between atoms: _496  and  _498
REMARK  203  A    between atoms: _498  and  _499
REMARK  204  A    between atoms: _498  and  _501
REMARK  205  A    between atoms: _501  and  _502
REMARK  206  A    between atoms: _502  and  _503
REMARK  207  A    between atoms: _506  and  _508
REMARK  208  A    between atoms: _508  and  _509
REMARK  209  A    between atoms: _508  and  _511
REMARK  210  A    between atoms: _511  and  _512
REMARK  211  A    between atoms: _515  and  _517
REMARK  212  A    between atoms: _517  and  _518
REMARK  213  A    between atoms: _517  and  _520
REMARK  214  A    between atoms: _520  and  _521
REMARK  215  A    between atoms: _521  and  _522
REMARK  216  A    between atoms: _522  and  _523
REMARK  217  A    between atoms: _532  and  _534
REMARK  218  A    between atoms: _534  and  _535
REMARK  219  A    between atoms: _534  and  _537
REMARK  220  A    between atoms: _537  and  _538
REMARK  221  A    between atoms: _543  and  _545
REMARK  222  A    between atoms: _545  and  _546
REMARK  223  A    between atoms: _545  and  _548
REMARK  224  A    between atoms: _548  and  _549
REMARK  225  A    between atoms: _552  and  _554
REMARK  226  A    between atoms: _554  and  _555
REMARK  227  A    between atoms: _554  and  _557
REMARK  228  A    between atoms: _557  and  _558
REMARK  229  A    between atoms: _563  and  _565
REMARK  230  A    between atoms: _565  and  _566
REMARK  231  A    between atoms: _565  and  _568
REMARK  232  A    between atoms: _568  and  _569
REMARK  233  A    between atoms: _569  and  _570
REMARK  234  A    between atoms: _570  and  _571
REMARK  235  A    between atoms: _580  and  _582
REMARK  236  A    between atoms: _582  and  _583
REMARK  237  A    between atoms: _582  and  _585
REMARK  238  A    between atoms: _585  and  _586
REMARK  239  A    between atoms: _586  and  _587
REMARK  240  A    between atoms: _589  and  _591
REMARK  241  A    between atoms: _591  and  _592
REMARK  242  A    between atoms: _591  and  _594
REMARK  243  A    between atoms: _594  and  _595
REMARK  244  A    between atoms: _595  and  _596
REMARK  245  A    between atoms: _598  and  _600
REMARK  246  A    between atoms: _600  and  _601
REMARK  247  A    between atoms: _600  and  _603
REMARK  248  A    between atoms: _603  and  _604
REMARK  249  A    between atoms: _604  and  _605
REMARK  250  A    between atoms: _605  and  _606
REMARK  251  A    between atoms: _606  and  _607
REMARK  252  A    between atoms: _611  and  _613
REMARK  253  A    between atoms: _613  and  _614
REMARK  254  A    between atoms: _613  and  _616
REMARK  255  A    between atoms: _616  and  _617
REMARK                            x       y       z     vdW  Elec       q    Type
REMARK                         _______ _______ _______ _____ _____    ______ ____
ROOT
ATOM      1  O   HOH     1      49.077   2.205  31.175  0.00  0.00    +0.000 OA
ENDROOT
TORSDOF 0
REMARK  Name = ../refined-set-2016/1x8t/1x8t_pocket.pdb
REMARK  255 active torsions:
REMARK  status: ('A' for Active; 'I' for Inactive)
REMARK    1  A    between atoms: _1  and  _3
REMARK    2  A    between atoms: _3  and  _4
REMARK    3  A    between atoms: _3  and  _6
REMARK    4  A    between atoms: _6  and  _7
REMARK    5  A    between atoms: _9  and  _11
REMARK    6  A    between atoms: _11  and  _12
REMARK    7  A    between atoms: _11  and  _14
REMARK    8  A    between atoms: _14  and  _15
REMARK    9  A    between atoms: _15  and  _16
REMARK   10  A    between atoms: _16  and  _17
REMARK   11  A    between atoms: _17  and  _18
REMARK   12  A    between atoms: _22  and  _24
REMARK   13  A    between atoms: _24  and  _25
REMARK   14  A    between atoms: _24  and  _27
REMARK   15  A    between atoms: _27  and  _28
REMARK   16  A    between atoms: _30  and  _32
REMARK   17  A    between atoms: _32  and  _33
REMARK   18  A    between atoms: _32  and  _35
REMARK   19  A    between atoms: _38  and  _40
REMARK   20  A    between atoms: _40  and  _41
REMARK   21  A    between atoms: _40  and  _43
REMARK   22  A    between atoms: _43  and  _44
REMARK   23  A    between atoms: _46  and  _48
REMARK   24  A    between atoms: _48  and  _49
REMARK   25  A    between atoms: _48  and  _51
REMARK   26  A    between atoms: _51  and  _52
REMARK   27  A    between atoms: _57  and  _59
REMARK   28  A    between atoms: _59  and  _60
REMARK   29  A    between atoms: _59  and  _62
REMARK   30  A    between atoms: _62  and  _63
REMARK   31  A    between atoms: _63  and  _64
REMARK   32  A    between atoms: _64  and  _65
REMARK   33  A    between atoms: _74  and  _76
REMARK   34  A    between atoms: _76  and  _77
REMARK   35  A    between atoms: _76  and  _79
REMARK   36  A    between atoms: _79  and  _80
REMARK   37  A    between atoms: _83  and  _85
REMARK   38  A    between atoms: _85  and  _86
REMARK   39  A    between atoms: _85  and  _88
REMARK   40  A    between atoms: _88  and  _89
REMARK   41  A    between atoms: _94  and  _96
REMARK   42  A    between atoms: _96  and  _97
REMARK   43  A    between atoms: _100  and  _102
REMARK   44  A    between atoms: _102  and  _103
REMARK   45  A    between atoms: _105  and  _107
REMARK   46  A    between atoms: _107  and  _108
REMARK   47  A    between atoms: _107  and  _110
REMARK   48  A    between atoms: _110  and  _111
REMARK   49  A    between atoms: _114  and  _116
REMARK   50  A    between atoms: _116  and  _117
REMARK   51  A    between atoms: _120  and  _122
REMARK   52  A    between atoms: _122  and  _123
REMARK   53  A    between atoms: _122  and  _125
REMARK   54  A    between atoms: _125  and  _126
REMARK   55  A    between atoms: _126  and  _127
REMARK   56  A    between atoms: _129  and  _131
REMARK   57  A    between atoms: _131  and  _132
REMARK   58  A    between atoms: _131  and  _134
REMARK   59  A    between atoms: _134  and  _135
REMARK   60  A    between atoms: _135  and  _136
REMARK   61  A    between atoms: _136  and  _137
REMARK   62  A    between atoms: _147  and  _148
REMARK   63  A    between atoms: _153  and  _155
REMARK   64  A    between atoms: _155  and  _156
REMARK   65  A    between atoms: _155  and  _158
REMARK   66  A    between atoms: _158  and  _159
REMARK   67  A    between atoms: _159  and  _160
REMARK   68  A    between atoms: _160  and  _161
REMARK   69  A    between atoms: _171  and  _172
REMARK   70  A    between atoms: _177  and  _179
REMARK   71  A    between atoms: _179  and  _180
REMARK   72  A    between atoms: _182  and  _184
REMARK   73  A    between atoms: _184  and  _185
REMARK   74  A    between atoms: _184  and  _187
REMARK   75  A    between atoms: _187  and  _188
REMARK   76  A    between atoms: _190  and  _192
REMARK   77  A    between atoms: _192  and  _193
REMARK   78  A    between atoms: _192  and  _195
REMARK   79  A    between atoms: _198  and  _200
REMARK   80  A    between atoms: _200  and  _201
REMARK   81  A    between atoms: _200  and  _203
REMARK   82  A    between atoms: _203  and  _204
REMARK   83  A    between atoms: _206  and  _208
REMARK   84  A    between atoms: _208  and  _209
REMARK   85  A    between atoms: _208  and  _211
REMARK   86  A    between atoms: _211  and  _212
REMARK   87  A    between atoms: _214  and  _216
REMARK   88  A    between atoms: _216  and  _217
REMARK   89  A    between atoms: _216  and  _219
REMARK   90  A    between atoms: _219  and  _220
REMARK   91  A    between atoms: _220  and  _221
REMARK   92  A    between atoms: _226  and  _228
REMARK   93  A    between atoms: _228  and  _229
REMARK   94  A    between atoms: _228  and  _231
REMARK   95  A    between atoms: _231  and  _232
REMARK   96  A    between atoms: _238  and  _240
REMARK   97  A    between atoms: _240  and  _241
REMARK   98  A    between atoms: _240  and  _243
REMARK   99  A    between atoms: _243  and  _244
REMARK  100  A    between atoms: _247  and  _249
REMARK  101  A    between atoms: _249  and  _250
REMARK  102  A    between atoms: _249  and  _252
REMARK  103  A    between atoms: _252  and  _253
REMARK  104  A    between atoms: _256  and  _258
REMARK  105  A    between atoms: _258  and  _259
REMARK  106  A    between atoms: _262  and  _264
REMARK  107  A    between atoms: _264  and  _265
REMARK  108  A    between atoms: _264  and  _267
REMARK  109  A    between atoms: _267  and  _268
REMARK  110  A    between atoms: _268  and  _269
REMARK  111  A    between atoms: _271  and  _273
REMARK  112  A    between atoms: _273  and  _274
REMARK  113  A    between atoms: _273  and  _276
REMARK  114  A    between atoms: _276  and  _277
REMARK  115  A    between atoms: _280  and  _282
REMARK  116  A    between atoms: _282  and  _283
REMARK  117  A    between atoms: _282  and  _285
REMARK  118  A    between atoms: _288  and  _290
REMARK  119  A    between atoms: _290  and  _291
REMARK  120  A    between atoms: _290  and  _293
REMARK  121  A    between atoms: _293  and  _294
REMARK  122  A    between atoms: _296  and  _298
REMARK  123  A    between atoms: _298  and  _299
REMARK  124  A    between atoms: _298  and  _301
REMARK  125  A    between atoms: _301  and  _302
REMARK  126  A    between atoms: _302  and  _303
REMARK  127  A    between atoms: _303  and  _304
REMARK  128  A    between atoms: _304  and  _305
REMARK  129  A    between atoms: _310  and  _311
REMARK  130  A    between atoms: _316  and  _318
REMARK  131  A    between atoms: _318  and  _319
REMARK  132  A    between atoms: _318  and  _321
REMARK  133  A    between atoms: _321  and  _322
REMARK  134  A    between atoms: _327  and  _328
REMARK  135  A    between atoms: _330  and  _332
REMARK  136  A    between atoms: _332  and  _333
REMARK  137  A    between atoms: _332  and  _335
REMARK  138  A    between atoms: _335  and  _336
REMARK  139  A    between atoms: _339  and  _341
REMARK  140  A    between atoms: _341  and  _342
REMARK  141  A    between atoms: _341  and  _344
REMARK  142  A    between atoms: _344  and  _345
REMARK  143  A    between atoms: _348  and  _350
REMARK  144  A    between atoms: _350  and  _351
REMARK  145  A    between atoms: _350  and  _353
REMARK  146  A    between atoms: _353  and  _354
REMARK  147  A    between atoms: _357  and  _359
REMARK  148  A    between atoms: _359  and  _360
REMARK  149  A    between atoms: _359  and  _362
REMARK  150  A    between atoms: _362  and  _363
REMARK  151  A    between atoms: _366  and  _368
REMARK  152  A    between atoms: _368  and  _369
REMARK  153  A    between atoms: _368  and  _371
REMARK  154  A    between atoms: _371  and  _372
REMARK  155  A    between atoms: _374  and  _376
REMARK  156  A    between atoms: _376  and  _377
REMARK  157  A    between atoms: _376  and  _379
REMARK  158  A    between atoms: _379  and  _380
REMARK  159  A    between atoms: _385  and  _386
REMARK  160  A    between atoms: _388  and  _390
REMARK  161  A    between atoms: _390  and  _391
REMARK  162  A    between atoms: _390  and  _393
REMARK  163  A    between atoms: _393  and  _394
REMARK  164  A    between atoms: _397  and  _399
REMARK  165  A    between atoms: _399  and  _400
REMARK  166  A    between atoms: _399  and  _402
REMARK  167  A    between atoms: _402  and  _403
REMARK  168  A    between atoms: _408  and  _410
REMARK  169  A    between atoms: _410  and  _411
REMARK  170  A    between atoms: _410  and  _413
REMARK  171  A    between atoms: _413  and  _414
REMARK  172  A    between atoms: _418  and  _419
REMARK  173  A    between atoms: _424  and  _426
REMARK  174  A    between atoms: _426  and  _427
REMARK  175  A    between atoms: _426  and  _429
REMARK  176  A    between atoms: _429  and  _430
REMARK  177  A    between atoms: _433  and  _435
REMARK  178  A    between atoms: _435  and  _436
REMARK  179  A    between atoms: _439  and  _441
REMARK  180  A    between atoms: _441  and  _442
REMARK  181  A    between atoms: _441  and  _444
REMARK  182  A    between atoms: _444  and  _445
REMARK  183  A    between atoms: _445  and  _446
REMARK  184  A    between atoms: _448  and  _450
REMARK  185  A    between atoms: _450  and  _451
REMARK  186  A    between atoms: _450  and  _453
REMARK  187  A    between atoms: _453  and  _454
REMARK  188  A    between atoms: _459  and  _461
REMARK  189  A    between atoms: _461  and  _462
REMARK  190  A    between atoms: _461  and  _464
REMARK  191  A    between atoms: _464  and  _465
REMARK  192  A    between atoms: _475  and  _477
REMARK  193  A    between atoms: _477  and  _478
REMARK  194  A    between atoms: _477  and  _480
REMARK  195  A    between atoms: _483  and  _485
REMARK  196  A    between atoms: _485  and  _486
REMARK  197  A    between atoms: _485  and  _488
REMARK  198  A    between atoms: _488  and  _489
REMARK  199  A    between atoms: _489  and  _490
REMARK  200  A    between atoms: _490  and  _491
REMARK  201  A    between atoms: _491  and  _492
REMARK  202  A    between atoms: _496  and  _498
REMARK  203  A    between atoms: _498  and  _499
REMARK  204  A    between atoms: _498  and  _501
REMARK  205  A    between atoms: _501  and  _502
REMARK  206  A    between atoms: _502  and  _503
REMARK  207  A    between atoms: _506  and  _508
REMARK  208  A    between atoms: _508  and  _509
REMARK  209  A    between atoms: _508  and  _511
REMARK  210  A    between atoms: _511  and  _512
REMARK  211  A    between atoms: _515  and  _517
REMARK  212  A    between atoms: _517  and  _518
REMARK  213  A    between atoms: _517  and  _520
REMARK  214  A    between atoms: _520  and  _521
REMARK  215  A    between atoms: _521  and  _522
REMARK  216  A    between atoms: _522  and  _523
REMARK  217  A    between atoms: _532  and  _534
REMARK  218  A    between atoms: _534  and  _535
REMARK  219  A    between atoms: _534  and  _537
REMARK  220  A    between atoms: _537  and  _538
REMARK  221  A    between atoms: _543  and  _545
REMARK  222  A    between atoms: _545  and  _546
REMARK  223  A    between atoms: _545  and  _548
REMARK  224  A    between atoms: _548  and  _549
REMARK  225  A    between atoms: _552  and  _554
REMARK  226  A    between atoms: _554  and  _555
REMARK  227  A    between atoms: _554  and  _557
REMARK  228  A    between atoms: _557  and  _558
REMARK  229  A    between atoms: _563  and  _565
REMARK  230  A    between atoms: _565  and  _566
REMARK  231  A    between atoms: _565  and  _568
REMARK  232  A    between atoms: _568  and  _569
REMARK  233  A    between atoms: _569  and  _570
REMARK  234  A    between atoms: _570  and  _571
REMARK  235  A    between atoms: _580  and  _582
REMARK  236  A    between atoms: _582  and  _583
REMARK  237  A    between atoms: _582  and  _585
REMARK  238  A    between atoms: _585  and  _586
REMARK  239  A    between atoms: _586  and  _587
REMARK  240  A    between atoms: _589  and  _591
REMARK  241  A    between atoms: _591  and  _592
REMARK  242  A    between atoms: _591  and  _594
REMARK  243  A    between atoms: _594  and  _595
REMARK  244  A    between atoms: _595  and  _596
REMARK  245  A    between atoms: _598  and  _600
REMARK  246  A    between atoms: _600  and  _601
REMARK  247  A    between atoms: _600  and  _603
REMARK  248  A    between atoms: _603  and  _604
REMARK  249  A    between atoms: _604  and  _605
REMARK  250  A    between atoms: _605  and  _606
REMARK  251  A    between atoms: _606  and  _607
REMARK  252  A    between atoms: _611  and  _613
REMARK  253  A    between atoms: _613  and  _614
REMARK  254  A    between atoms: _613  and  _616
REMARK  255  A    between atoms: _616  and  _617
REMARK                            x       y       z     vdW  Elec       q    Type
REMARK                         _______ _______ _______ _____ _____    ______ ____
ROOT
ATOM      1  O   HOH     1      69.604   7.011  30.421  0.00  0.00    +0.000 OA
ENDROOT
TORSDOF 0
REMARK  Name = ../refined-set-2016/1x8t/1x8t_pocket.pdb
REMARK  255 active torsions:
REMARK  status: ('A' for Active; 'I' for Inactive)
REMARK    1  A    between atoms: _1  and  _3
REMARK    2  A    between atoms: _3  and  _4
REMARK    3  A    between atoms: _3  and  _6
REMARK    4  A    between atoms: _6  and  _7
REMARK    5  A    between atoms: _9  and  _11
REMARK    6  A    between atoms: _11  and  _12
REMARK    7  A    between atoms: _11  and  _14
REMARK    8  A    between atoms: _14  and  _15
REMARK    9  A    between atoms: _15  and  _16
REMARK   10  A    between atoms: _16  and  _17
REMARK   11  A    between atoms: _17  and  _18
REMARK   12  A    between atoms: _22  and  _24
REMARK   13  A    between atoms: _24  and  _25
REMARK   14  A    between atoms: _24  and  _27
REMARK   15  A    between atoms: _27  and  _28
REMARK   16  A    between atoms: _30  and  _32
REMARK   17  A    between atoms: _32  and  _33
REMARK   18  A    between atoms: _32  and  _35
REMARK   19  A    between atoms: _38  and  _40
REMARK   20  A    between atoms: _40  and  _41
REMARK   21  A    between atoms: _40  and  _43
REMARK   22  A    between atoms: _43  and  _44
REMARK   23  A    between atoms: _46  and  _48
REMARK   24  A    between atoms: _48  and  _49
REMARK   25  A    between atoms: _48  and  _51
REMARK   26  A    between atoms: _51  and  _52
REMARK   27  A    between atoms: _57  and  _59
REMARK   28  A    between atoms: _59  and  _60
REMARK   29  A    between atoms: _59  and  _62
REMARK   30  A    between atoms: _62  and  _63
REMARK   31  A    between atoms: _63  and  _64
REMARK   32  A    between atoms: _64  and  _65
REMARK   33  A    between atoms: _74  and  _76
REMARK   34  A    between atoms: _76  and  _77
REMARK   35  A    between atoms: _76  and  _79
REMARK   36  A    between atoms: _79  and  _80
REMARK   37  A    between atoms: _83  and  _85
REMARK   38  A    between atoms: _85  and  _86
REMARK   39  A    between atoms: _85  and  _88
REMARK   40  A    between atoms: _88  and  _89
REMARK   41  A    between atoms: _94  and  _96
REMARK   42  A    between atoms: _96  and  _97
REMARK   43  A    between atoms: _100  and  _102
REMARK   44  A    between atoms: _102  and  _103
REMARK   45  A    between atoms: _105  and  _107
REMARK   46  A    between atoms: _107  and  _108
REMARK   47  A    between atoms: _107  and  _110
REMARK   48  A    between atoms: _110  and  _111
REMARK   49  A    between atoms: _114  and  _116
REMARK   50  A    between atoms: _116  and  _117
REMARK   51  A    between atoms: _120  and  _122
REMARK   52  A    between atoms: _122  and  _123
REMARK   53  A    between atoms: _122  and  _125
REMARK   54  A    between atoms: _125  and  _126
REMARK   55  A    between atoms: _126  and  _127
REMARK   56  A    between atoms: _129  and  _131
REMARK   57  A    between atoms: _131  and  _132
REMARK   58  A    between atoms: _131  and  _134
REMARK   59  A    between atoms: _134  and  _135
REMARK   60  A    between atoms: _135  and  _136
REMARK   61  A    between atoms: _136  and  _137
REMARK   62  A    between atoms: _147  and  _148
REMARK   63  A    between atoms: _153  and  _155
REMARK   64  A    between atoms: _155  and  _156
REMARK   65  A    between atoms: _155  and  _158
REMARK   66  A    between atoms: _158  and  _159
REMARK   67  A    between atoms: _159  and  _160
REMARK   68  A    between atoms: _160  and  _161
REMARK   69  A    between atoms: _171  and  _172
REMARK   70  A    between atoms: _177  and  _179
REMARK   71  A    between atoms: _179  and  _180
REMARK   72  A    between atoms: _182  and  _184
REMARK   73  A    between atoms: _184  and  _185
REMARK   74  A    between atoms: _184  and  _187
REMARK   75  A    between atoms: _187  and  _188
REMARK   76  A    between atoms: _190  and  _192
REMARK   77  A    between atoms: _192  and  _193
REMARK   78  A    between atoms: _192  and  _195
REMARK   79  A    between atoms: _198  and  _200
REMARK   80  A    between atoms: _200  and  _201
REMARK   81  A    between atoms: _200  and  _203
REMARK   82  A    between atoms: _203  and  _204
REMARK   83  A    between atoms: _206  and  _208
REMARK   84  A    between atoms: _208  and  _209
REMARK   85  A    between atoms: _208  and  _211
REMARK   86  A    between atoms: _211  and  _212
REMARK   87  A    between atoms: _214  and  _216
REMARK   88  A    between atoms: _216  and  _217
REMARK   89  A    between atoms: _216  and  _219
REMARK   90  A    between atoms: _219  and  _220
REMARK   91  A    between atoms: _220  and  _221
REMARK   92  A    between atoms: _226  and  _228
REMARK   93  A    between atoms: _228  and  _229
REMARK   94  A    between atoms: _228  and  _231
REMARK   95  A    between atoms: _231  and  _232
REMARK   96  A    between atoms: _238  and  _240
REMARK   97  A    between atoms: _240  and  _241
REMARK   98  A    between atoms: _240  and  _243
REMARK   99  A    between atoms: _243  and  _244
REMARK  100  A    between atoms: _247  and  _249
REMARK  101  A    between atoms: _249  and  _250
REMARK  102  A    between atoms: _249  and  _252
REMARK  103  A    between atoms: _252  and  _253
REMARK  104  A    between atoms: _256  and  _258
REMARK  105  A    between atoms: _258  and  _259
REMARK  106  A    between atoms: _262  and  _264
REMARK  107  A    between atoms: _264  and  _265
REMARK  108  A    between atoms: _264  and  _267
REMARK  109  A    between atoms: _267  and  _268
REMARK  110  A    between atoms: _268  and  _269
REMARK  111  A    between atoms: _271  and  _273
REMARK  112  A    between atoms: _273  and  _274
REMARK  113  A    between atoms: _273  and  _276
REMARK  114  A    between atoms: _276  and  _277
REMARK  115  A    between atoms: _280  and  _282
REMARK  116  A    between atoms: _282  and  _283
REMARK  117  A    between atoms: _282  and  _285
REMARK  118  A    between atoms: _288  and  _290
REMARK  119  A    between atoms: _290  and  _291
REMARK  120  A    between atoms: _290  and  _293
REMARK  121  A    between atoms: _293  and  _294
REMARK  122  A    between atoms: _296  and  _298
REMARK  123  A    between atoms: _298  and  _299
REMARK  124  A    between atoms: _298  and  _301
REMARK  125  A    between atoms: _301  and  _302
REMARK  126  A    between atoms: _302  and  _303
REMARK  127  A    between atoms: _303  and  _304
REMARK  128  A    between atoms: _304  and  _305
REMARK  129  A    between atoms: _310  and  _311
REMARK  130  A    between atoms: _316  and  _318
REMARK  131  A    between atoms: _318  and  _319
REMARK  132  A    between atoms: _318  and  _321
REMARK  133  A    between atoms: _321  and  _322
REMARK  134  A    between atoms: _327  and  _328
REMARK  135  A    between atoms: _330  and  _332
REMARK  136  A    between atoms: _332  and  _333
REMARK  137  A    between atoms: _332  and  _335
REMARK  138  A    between atoms: _335  and  _336
REMARK  139  A    between atoms: _339  and  _341
REMARK  140  A    between atoms: _341  and  _342
REMARK  141  A    between atoms: _341  and  _344
REMARK  142  A    between atoms: _344  and  _345
REMARK  143  A    between atoms: _348  and  _350
REMARK  144  A    between atoms: _350  and  _351
REMARK  145  A    between atoms: _350  and  _353
REMARK  146  A    between atoms: _353  and  _354
REMARK  147  A    between atoms: _357  and  _359
REMARK  148  A    between atoms: _359  and  _360
REMARK  149  A    between atoms: _359  and  _362
REMARK  150  A    between atoms: _362  and  _363
REMARK  151  A    between atoms: _366  and  _368
REMARK  152  A    between atoms: _368  and  _369
REMARK  153  A    between atoms: _368  and  _371
REMARK  154  A    between atoms: _371  and  _372
REMARK  155  A    between atoms: _374  and  _376
REMARK  156  A    between atoms: _376  and  _377
REMARK  157  A    between atoms: _376  and  _379
REMARK  158  A    between atoms: _379  and  _380
REMARK  159  A    between atoms: _385  and  _386
REMARK  160  A    between atoms: _388  and  _390
REMARK  161  A    between atoms: _390  and  _391
REMARK  162  A    between atoms: _390  and  _393
REMARK  163  A    between atoms: _393  and  _394
REMARK  164  A    between atoms: _397  and  _399
REMARK  165  A    between atoms: _399  and  _400
REMARK  166  A    between atoms: _399  and  _402
REMARK  167  A    between atoms: _402  and  _403
REMARK  168  A    between atoms: _408  and  _410
REMARK  169  A    between atoms: _410  and  _411
REMARK  170  A    between atoms: _410  and  _413
REMARK  171  A    between atoms: _413  and  _414
REMARK  172  A    between atoms: _418  and  _419
REMARK  173  A    between atoms: _424  and  _426
REMARK  174  A    between atoms: _426  and  _427
REMARK  175  A    between atoms: _426  and  _429
REMARK  176  A    between atoms: _429  and  _430
REMARK  177  A    between atoms: _433  and  _435
REMARK  178  A    between atoms: _435  and  _436
REMARK  179  A    between atoms: _439  and  _441
REMARK  180  A    between atoms: _441  and  _442
REMARK  181  A    between atoms: _441  and  _444
REMARK  182  A    between atoms: _444  and  _445
REMARK  183  A    between atoms: _445  and  _446
REMARK  184  A    between atoms: _448  and  _450
REMARK  185  A    between atoms: _450  and  _451
REMARK  186  A    between atoms: _450  and  _453
REMARK  187  A    between atoms: _453  and  _454
REMARK  188  A    between atoms: _459  and  _461
REMARK  189  A    between atoms: _461  and  _462
REMARK  190  A    between atoms: _461  and  _464
REMARK  191  A    between atoms: _464  and  _465
REMARK  192  A    between atoms: _475  and  _477
REMARK  193  A    between atoms: _477  and  _478
REMARK  194  A    between atoms: _477  and  _480
REMARK  195  A    between atoms: _483  and  _485
REMARK  196  A    between atoms: _485  and  _486
REMARK  197  A    between atoms: _485  and  _488
REMARK  198  A    between atoms: _488  and  _489
REMARK  199  A    between atoms: _489  and  _490
REMARK  200  A    between atoms: _490  and  _491
REMARK  201  A    between atoms: _491  and  _492
REMARK  202  A    between atoms: _496  and  _498
REMARK  203  A    between atoms: _498  and  _499
REMARK  204  A    between atoms: _498  and  _501
REMARK  205  A    between atoms: _501  and  _502
REMARK  206  A    between atoms: _502  and  _503
REMARK  207  A    between atoms: _506  and  _508
REMARK  208  A    between atoms: _508  and  _509
REMARK  209  A    between atoms: _508  and  _511
REMARK  210  A    between atoms: _511  and  _512
REMARK  211  A    between atoms: _515  and  _517
REMARK  212  A    between atoms: _517  and  _518
REMARK  213  A    between atoms: _517  and  _520
REMARK  214  A    between atoms: _520  and  _521
REMARK  215  A    between atoms: _521  and  _522
REMARK  216  A    between atoms: _522  and  _523
REMARK  217  A    between atoms: _532  and  _534
REMARK  218  A    between atoms: _534  and  _535
REMARK  219  A    between atoms: _534  and  _537
REMARK  220  A    between atoms: _537  and  _538
REMARK  221  A    between atoms: _543  and  _545
REMARK  222  A    between atoms: _545  and  _546
REMARK  223  A    between atoms: _545  and  _548
REMARK  224  A    between atoms: _548  and  _549
REMARK  225  A    between atoms: _552  and  _554
REMARK  226  A    between atoms: _554  and  _555
REMARK  227  A    between atoms: _554  and  _557
REMARK  228  A    between atoms: _557  and  _558
REMARK  229  A    between atoms: _563  and  _565
REMARK  230  A    between atoms: _565  and  _566
REMARK  231  A    between atoms: _565  and  _568
REMARK  232  A    between atoms: _568  and  _569
REMARK  233  A    between atoms: _569  and  _570
REMARK  234  A    between atoms: _570  and  _571
REMARK  235  A    between atoms: _580  and  _582
REMARK  236  A    between atoms: _582  and  _583
REMARK  237  A    between atoms: _582  and  _585
REMARK  238  A    between atoms: _585  and  _586
REMARK  239  A    between atoms: _586  and  _587
REMARK  240  A    between atoms: _589  and  _591
REMARK  241  A    between atoms: _591  and  _592
REMARK  242  A    between atoms: _591  and  _594
REMARK  243  A    between atoms: _594  and  _595
REMARK  244  A    between atoms: _595  and  _596
REMARK  245  A    between atoms: _598  and  _600
REMARK  246  A    between atoms: _600  and  _601
REMARK  247  A    between atoms: _600  and  _603
REMARK  248  A    between atoms: _603  and  _604
REMARK  249  A    between atoms: _604  and  _605
REMARK  250  A    between atoms: _605  and  _606
REMARK  251  A    between atoms: _606  and  _607
REMARK  252  A    between atoms: _611  and  _613
REMARK  253  A    between atoms: _613  and  _614
REMARK  254  A    between atoms: _613  and  _616
REMARK  255  A    between atoms: _616  and  _617
REMARK                            x       y       z     vdW  Elec       q    Type
REMARK                         _______ _______ _______ _____ _____    ______ ____
ROOT
ATOM      1  O   HOH     1      49.613   6.372  32.047  0.00  0.00    +0.000 OA
ENDROOT
TORSDOF 0
REMARK  Name = ../refined-set-2016/1x8t/1x8t_pocket.pdb
REMARK  255 active torsions:
REMARK  status: ('A' for Active; 'I' for Inactive)
REMARK    1  A    between atoms: _1  and  _3
REMARK    2  A    between atoms: _3  and  _4
REMARK    3  A    between atoms: _3  and  _6
REMARK    4  A    between atoms: _6  and  _7
REMARK    5  A    between atoms: _9  and  _11
REMARK    6  A    between atoms: _11  and  _12
REMARK    7  A    between atoms: _11  and  _14
REMARK    8  A    between atoms: _14  and  _15
REMARK    9  A    between atoms: _15  and  _16
REMARK   10  A    between atoms: _16  and  _17
REMARK   11  A    between atoms: _17  and  _18
REMARK   12  A    between atoms: _22  and  _24
REMARK   13  A    between atoms: _24  and  _25
REMARK   14  A    between atoms: _24  and  _27
REMARK   15  A    between atoms: _27  and  _28
REMARK   16  A    between atoms: _30  and  _32
REMARK   17  A    between atoms: _32  and  _33
REMARK   18  A    between atoms: _32  and  _35
REMARK   19  A    between atoms: _38  and  _40
REMARK   20  A    between atoms: _40  and  _41
REMARK   21  A    between atoms: _40  and  _43
REMARK   22  A    between atoms: _43  and  _44
REMARK   23  A    between atoms: _46  and  _48
REMARK   24  A    between atoms: _48  and  _49
REMARK   25  A    between atoms: _48  and  _51
REMARK   26  A    between atoms: _51  and  _52
REMARK   27  A    between atoms: _57  and  _59
REMARK   28  A    between atoms: _59  and  _60
REMARK   29  A    between atoms: _59  and  _62
REMARK   30  A    between atoms: _62  and  _63
REMARK   31  A    between atoms: _63  and  _64
REMARK   32  A    between atoms: _64  and  _65
REMARK   33  A    between atoms: _74  and  _76
REMARK   34  A    between atoms: _76  and  _77
REMARK   35  A    between atoms: _76  and  _79
REMARK   36  A    between atoms: _79  and  _80
REMARK   37  A    between atoms: _83  and  _85
REMARK   38  A    between atoms: _85  and  _86
REMARK   39  A    between atoms: _85  and  _88
REMARK   40  A    between atoms: _88  and  _89
REMARK   41  A    between atoms: _94  and  _96
REMARK   42  A    between atoms: _96  and  _97
REMARK   43  A    between atoms: _100  and  _102
REMARK   44  A    between atoms: _102  and  _103
REMARK   45  A    between atoms: _105  and  _107
REMARK   46  A    between atoms: _107  and  _108
REMARK   47  A    between atoms: _107  and  _110
REMARK   48  A    between atoms: _110  and  _111
REMARK   49  A    between atoms: _114  and  _116
REMARK   50  A    between atoms: _116  and  _117
REMARK   51  A    between atoms: _120  and  _122
REMARK   52  A    between atoms: _122  and  _123
REMARK   53  A    between atoms: _122  and  _125
REMARK   54  A    between atoms: _125  and  _126
REMARK   55  A    between atoms: _126  and  _127
REMARK   56  A    between atoms: _129  and  _131
REMARK   57  A    between atoms: _131  and  _132
REMARK   58  A    between atoms: _131  and  _134
REMARK   59  A    between atoms: _134  and  _135
REMARK   60  A    between atoms: _135  and  _136
REMARK   61  A    between atoms: _136  and  _137
REMARK   62  A    between atoms: _147  and  _148
REMARK   63  A    between atoms: _153  and  _155
REMARK   64  A    between atoms: _155  and  _156
REMARK   65  A    between atoms: _155  and  _158
REMARK   66  A    between atoms: _158  and  _159
REMARK   67  A    between atoms: _159  and  _160
REMARK   68  A    between atoms: _160  and  _161
REMARK   69  A    between atoms: _171  and  _172
REMARK   70  A    between atoms: _177  and  _179
REMARK   71  A    between atoms: _179  and  _180
REMARK   72  A    between atoms: _182  and  _184
REMARK   73  A    between atoms: _184  and  _185
REMARK   74  A    between atoms: _184  and  _187
REMARK   75  A    between atoms: _187  and  _188
REMARK   76  A    between atoms: _190  and  _192
REMARK   77  A    between atoms: _192  and  _193
REMARK   78  A    between atoms: _192  and  _195
REMARK   79  A    between atoms: _198  and  _200
REMARK   80  A    between atoms: _200  and  _201
REMARK   81  A    between atoms: _200  and  _203
REMARK   82  A    between atoms: _203  and  _204
REMARK   83  A    between atoms: _206  and  _208
REMARK   84  A    between atoms: _208  and  _209
REMARK   85  A    between atoms: _208  and  _211
REMARK   86  A    between atoms: _211  and  _212
REMARK   87  A    between atoms: _214  and  _216
REMARK   88  A    between atoms: _216  and  _217
REMARK   89  A    between atoms: _216  and  _219
REMARK   90  A    between atoms: _219  and  _220
REMARK   91  A    between atoms: _220  and  _221
REMARK   92  A    between atoms: _226  and  _228
REMARK   93  A    between atoms: _228  and  _229
REMARK   94  A    between atoms: _228  and  _231
REMARK   95  A    between atoms: _231  and  _232
REMARK   96  A    between atoms: _238  and  _240
REMARK   97  A    between atoms: _240  and  _241
REMARK   98  A    between atoms: _240  and  _243
REMARK   99  A    between atoms: _243  and  _244
REMARK  100  A    between atoms: _247  and  _249
REMARK  101  A    between atoms: _249  and  _250
REMARK  102  A    between atoms: _249  and  _252
REMARK  103  A    between atoms: _252  and  _253
REMARK  104  A    between atoms: _256  and  _258
REMARK  105  A    between atoms: _258  and  _259
REMARK  106  A    between atoms: _262  and  _264
REMARK  107  A    between atoms: _264  and  _265
REMARK  108  A    between atoms: _264  and  _267
REMARK  109  A    between atoms: _267  and  _268
REMARK  110  A    between atoms: _268  and  _269
REMARK  111  A    between atoms: _271  and  _273
REMARK  112  A    between atoms: _273  and  _274
REMARK  113  A    between atoms: _273  and  _276
REMARK  114  A    between atoms: _276  and  _277
REMARK  115  A    between atoms: _280  and  _282
REMARK  116  A    between atoms: _282  and  _283
REMARK  117  A    between atoms: _282  and  _285
REMARK  118  A    between atoms: _288  and  _290
REMARK  119  A    between atoms: _290  and  _291
REMARK  120  A    between atoms: _290  and  _293
REMARK  121  A    between atoms: _293  and  _294
REMARK  122  A    between atoms: _296  and  _298
REMARK  123  A    between atoms: _298  and  _299
REMARK  124  A    between atoms: _298  and  _301
REMARK  125  A    between atoms: _301  and  _302
REMARK  126  A    between atoms: _302  and  _303
REMARK  127  A    between atoms: _303  and  _304
REMARK  128  A    between atoms: _304  and  _305
REMARK  129  A    between atoms: _310  and  _311
REMARK  130  A    between atoms: _316  and  _318
REMARK  131  A    between atoms: _318  and  _319
REMARK  132  A    between atoms: _318  and  _321
REMARK  133  A    between atoms: _321  and  _322
REMARK  134  A    between atoms: _327  and  _328
REMARK  135  A    between atoms: _330  and  _332
REMARK  136  A    between atoms: _332  and  _333
REMARK  137  A    between atoms: _332  and  _335
REMARK  138  A    between atoms: _335  and  _336
REMARK  139  A    between atoms: _339  and  _341
REMARK  140  A    between atoms: _341  and  _342
REMARK  141  A    between atoms: _341  and  _344
REMARK  142  A    between atoms: _344  and  _345
REMARK  143  A    between atoms: _348  and  _350
REMARK  144  A    between atoms: _350  and  _351
REMARK  145  A    between atoms: _350  and  _353
REMARK  146  A    between atoms: _353  and  _354
REMARK  147  A    between atoms: _357  and  _359
REMARK  148  A    between atoms: _359  and  _360
REMARK  149  A    between atoms: _359  and  _362
REMARK  150  A    between atoms: _362  and  _363
REMARK  151  A    between atoms: _366  and  _368
REMARK  152  A    between atoms: _368  and  _369
REMARK  153  A    between atoms: _368  and  _371
REMARK  154  A    between atoms: _371  and  _372
REMARK  155  A    between atoms: _374  and  _376
REMARK  156  A    between atoms: _376  and  _377
REMARK  157  A    between atoms: _376  and  _379
REMARK  158  A    between atoms: _379  and  _380
REMARK  159  A    between atoms: _385  and  _386
REMARK  160  A    between atoms: _388  and  _390
REMARK  161  A    between atoms: _390  and  _391
REMARK  162  A    between atoms: _390  and  _393
REMARK  163  A    between atoms: _393  and  _394
REMARK  164  A    between atoms: _397  and  _399
REMARK  165  A    between atoms: _399  and  _400
REMARK  166  A    between atoms: _399  and  _402
REMARK  167  A    between atoms: _402  and  _403
REMARK  168  A    between atoms: _408  and  _410
REMARK  169  A    between atoms: _410  and  _411
REMARK  170  A    between atoms: _410  and  _413
REMARK  171  A    between atoms: _413  and  _414
REMARK  172  A    between atoms: _418  and  _419
REMARK  173  A    between atoms: _424  and  _426
REMARK  174  A    between atoms: _426  and  _427
REMARK  175  A    between atoms: _426  and  _429
REMARK  176  A    between atoms: _429  and  _430
REMARK  177  A    between atoms: _433  and  _435
REMARK  178  A    between atoms: _435  and  _436
REMARK  179  A    between atoms: _439  and  _441
REMARK  180  A    between atoms: _441  and  _442
REMARK  181  A    between atoms: _441  and  _444
REMARK  182  A    between atoms: _444  and  _445
REMARK  183  A    between atoms: _445  and  _446
REMARK  184  A    between atoms: _448  and  _450
REMARK  185  A    between atoms: _450  and  _451
REMARK  186  A    between atoms: _450  and  _453
REMARK  187  A    between atoms: _453  and  _454
REMARK  188  A    between atoms: _459  and  _461
REMARK  189  A    between atoms: _461  and  _462
REMARK  190  A    between atoms: _461  and  _464
REMARK  191  A    between atoms: _464  and  _465
REMARK  192  A    between atoms: _475  and  _477
REMARK  193  A    between atoms: _477  and  _478
REMARK  194  A    between atoms: _477  and  _480
REMARK  195  A    between atoms: _483  and  _485
REMARK  196  A    between atoms: _485  and  _486
REMARK  197  A    between atoms: _485  and  _488
REMARK  198  A    between atoms: _488  and  _489
REMARK  199  A    between atoms: _489  and  _490
REMARK  200  A    between atoms: _490  and  _491
REMARK  201  A    between atoms: _491  and  _492
REMARK  202  A    between atoms: _496  and  _498
REMARK  203  A    between atoms: _498  and  _499
REMARK  204  A    between atoms: _498  and  _501
REMARK  205  A    between atoms: _501  and  _502
REMARK  206  A    between atoms: _502  and  _503
REMARK  207  A    between atoms: _506  and  _508
REMARK  208  A    between atoms: _508  and  _509
REMARK  209  A    between atoms: _508  and  _511
REMARK  210  A    between atoms: _511  and  _512
REMARK  211  A    between atoms: _515  and  _517
REMARK  212  A    between atoms: _517  and  _518
REMARK  213  A    between atoms: _517  and  _520
REMARK  214  A    between atoms: _520  and  _521
REMARK  215  A    between atoms: _521  and  _522
REMARK  216  A    between atoms: _522  and  _523
REMARK  217  A    between atoms: _532  and  _534
REMARK  218  A    between atoms: _534  and  _535
REMARK  219  A    between atoms: _534  and  _537
REMARK  220  A    between atoms: _537  and  _538
REMARK  221  A    between atoms: _543  and  _545
REMARK  222  A    between atoms: _545  and  _546
REMARK  223  A    between atoms: _545  and  _548
REMARK  224  A    between atoms: _548  and  _549
REMARK  225  A    between atoms: _552  and  _554
REMARK  226  A    between atoms: _554  and  _555
REMARK  227  A    between atoms: _554  and  _557
REMARK  228  A    between atoms: _557  and  _558
REMARK  229  A    between atoms: _563  and  _565
REMARK  230  A    between atoms: _565  and  _566
REMARK  231  A    between atoms: _565  and  _568
REMARK  232  A    between atoms: _568  and  _569
REMARK  233  A    between atoms: _569  and  _570
REMARK  234  A    between atoms: _570  and  _571
REMARK  235  A    between atoms: _580  and  _582
REMARK  236  A    between atoms: _582  and  _583
REMARK  237  A    between atoms: _582  and  _585
REMARK  238  A    between atoms: _585  and  _586
REMARK  239  A    between atoms: _586  and  _587
REMARK  240  A    between atoms: _589  and  _591
REMARK  241  A    between atoms: _591  and  _592
REMARK  242  A    between atoms: _591  and  _594
REMARK  243  A    between atoms: _594  and  _595
REMARK  244  A    between atoms: _595  and  _596
REMARK  245  A    between atoms: _598  and  _600
REMARK  246  A    between atoms: _600  and  _601
REMARK  247  A    between atoms: _600  and  _603
REMARK  248  A    between atoms: _603  and  _604
REMARK  249  A    between atoms: _604  and  _605
REMARK  250  A    between atoms: _605  and  _606
REMARK  251  A    between atoms: _606  and  _607
REMARK  252  A    between atoms: _611  and  _613
REMARK  253  A    between atoms: _613  and  _614
REMARK  254  A    between atoms: _613  and  _616
REMARK  255  A    between atoms: _616  and  _617
REMARK                            x       y       z     vdW  Elec       q    Type
REMARK                         _______ _______ _______ _____ _____    ______ ____
ROOT
ATOM      1  O   HOH     1      56.468   6.047  26.052  0.00  0.00    +0.000 OA
ENDROOT
TORSDOF 0
REMARK  Name = ../refined-set-2016/1x8t/1x8t_pocket.pdb
REMARK  255 active torsions:
REMARK  status: ('A' for Active; 'I' for Inactive)
REMARK    1  A    between atoms: _1  and  _3
REMARK    2  A    between atoms: _3  and  _4
REMARK    3  A    between atoms: _3  and  _6
REMARK    4  A    between atoms: _6  and  _7
REMARK    5  A    between atoms: _9  and  _11
REMARK    6  A    between atoms: _11  and  _12
REMARK    7  A    between atoms: _11  and  _14
REMARK    8  A    between atoms: _14  and  _15
REMARK    9  A    between atoms: _15  and  _16
REMARK   10  A    between atoms: _16  and  _17
REMARK   11  A    between atoms: _17  and  _18
REMARK   12  A    between atoms: _22  and  _24
REMARK   13  A    between atoms: _24  and  _25
REMARK   14  A    between atoms: _24  and  _27
REMARK   15  A    between atoms: _27  and  _28
REMARK   16  A    between atoms: _30  and  _32
REMARK   17  A    between atoms: _32  and  _33
REMARK   18  A    between atoms: _32  and  _35
REMARK   19  A    between atoms: _38  and  _40
REMARK   20  A    between atoms: _40  and  _41
REMARK   21  A    between atoms: _40  and  _43
REMARK   22  A    between atoms: _43  and  _44
REMARK   23  A    between atoms: _46  and  _48
REMARK   24  A    between atoms: _48  and  _49
REMARK   25  A    between atoms: _48  and  _51
REMARK   26  A    between atoms: _51  and  _52
REMARK   27  A    between atoms: _57  and  _59
REMARK   28  A    between atoms: _59  and  _60
REMARK   29  A    between atoms: _59  and  _62
REMARK   30  A    between atoms: _62  and  _63
REMARK   31  A    between atoms: _63  and  _64
REMARK   32  A    between atoms: _64  and  _65
REMARK   33  A    between atoms: _74  and  _76
REMARK   34  A    between atoms: _76  and  _77
REMARK   35  A    between atoms: _76  and  _79
REMARK   36  A    between atoms: _79  and  _80
REMARK   37  A    between atoms: _83  and  _85
REMARK   38  A    between atoms: _85  and  _86
REMARK   39  A    between atoms: _85  and  _88
REMARK   40  A    between atoms: _88  and  _89
REMARK   41  A    between atoms: _94  and  _96
REMARK   42  A    between atoms: _96  and  _97
REMARK   43  A    between atoms: _100  and  _102
REMARK   44  A    between atoms: _102  and  _103
REMARK   45  A    between atoms: _105  and  _107
REMARK   46  A    between atoms: _107  and  _108
REMARK   47  A    between atoms: _107  and  _110
REMARK   48  A    between atoms: _110  and  _111
REMARK   49  A    between atoms: _114  and  _116
REMARK   50  A    between atoms: _116  and  _117
REMARK   51  A    between atoms: _120  and  _122
REMARK   52  A    between atoms: _122  and  _123
REMARK   53  A    between atoms: _122  and  _125
REMARK   54  A    between atoms: _125  and  _126
REMARK   55  A    between atoms: _126  and  _127
REMARK   56  A    between atoms: _129  and  _131
REMARK   57  A    between atoms: _131  and  _132
REMARK   58  A    between atoms: _131  and  _134
REMARK   59  A    between atoms: _134  and  _135
REMARK   60  A    between atoms: _135  and  _136
REMARK   61  A    between atoms: _136  and  _137
REMARK   62  A    between atoms: _147  and  _148
REMARK   63  A    between atoms: _153  and  _155
REMARK   64  A    between atoms: _155  and  _156
REMARK   65  A    between atoms: _155  and  _158
REMARK   66  A    between atoms: _158  and  _159
REMARK   67  A    between atoms: _159  and  _160
REMARK   68  A    between atoms: _160  and  _161
REMARK   69  A    between atoms: _171  and  _172
REMARK   70  A    between atoms: _177  and  _179
REMARK   71  A    between atoms: _179  and  _180
REMARK   72  A    between atoms: _182  and  _184
REMARK   73  A    between atoms: _184  and  _185
REMARK   74  A    between atoms: _184  and  _187
REMARK   75  A    between atoms: _187  and  _188
REMARK   76  A    between atoms: _190  and  _192
REMARK   77  A    between atoms: _192  and  _193
REMARK   78  A    between atoms: _192  and  _195
REMARK   79  A    between atoms: _198  and  _200
REMARK   80  A    between atoms: _200  and  _201
REMARK   81  A    between atoms: _200  and  _203
REMARK   82  A    between atoms: _203  and  _204
REMARK   83  A    between atoms: _206  and  _208
REMARK   84  A    between atoms: _208  and  _209
REMARK   85  A    between atoms: _208  and  _211
REMARK   86  A    between atoms: _211  and  _212
REMARK   87  A    between atoms: _214  and  _216
REMARK   88  A    between atoms: _216  and  _217
REMARK   89  A    between atoms: _216  and  _219
REMARK   90  A    between atoms: _219  and  _220
REMARK   91  A    between atoms: _220  and  _221
REMARK   92  A    between atoms: _226  and  _228
REMARK   93  A    between atoms: _228  and  _229
REMARK   94  A    between atoms: _228  and  _231
REMARK   95  A    between atoms: _231  and  _232
REMARK   96  A    between atoms: _238  and  _240
REMARK   97  A    between atoms: _240  and  _241
REMARK   98  A    between atoms: _240  and  _243
REMARK   99  A    between atoms: _243  and  _244
REMARK  100  A    between atoms: _247  and  _249
REMARK  101  A    between atoms: _249  and  _250
REMARK  102  A    between atoms: _249  and  _252
REMARK  103  A    between atoms: _252  and  _253
REMARK  104  A    between atoms: _256  and  _258
REMARK  105  A    between atoms: _258  and  _259
REMARK  106  A    between atoms: _262  and  _264
REMARK  107  A    between atoms: _264  and  _265
REMARK  108  A    between atoms: _264  and  _267
REMARK  109  A    between atoms: _267  and  _268
REMARK  110  A    between atoms: _268  and  _269
REMARK  111  A    between atoms: _271  and  _273
REMARK  112  A    between atoms: _273  and  _274
REMARK  113  A    between atoms: _273  and  _276
REMARK  114  A    between atoms: _276  and  _277
REMARK  115  A    between atoms: _280  and  _282
REMARK  116  A    between atoms: _282  and  _283
REMARK  117  A    between atoms: _282  and  _285
REMARK  118  A    between atoms: _288  and  _290
REMARK  119  A    between atoms: _290  and  _291
REMARK  120  A    between atoms: _290  and  _293
REMARK  121  A    between atoms: _293  and  _294
REMARK  122  A    between atoms: _296  and  _298
REMARK  123  A    between atoms: _298  and  _299
REMARK  124  A    between atoms: _298  and  _301
REMARK  125  A    between atoms: _301  and  _302
REMARK  126  A    between atoms: _302  and  _303
REMARK  127  A    between atoms: _303  and  _304
REMARK  128  A    between atoms: _304  and  _305
REMARK  129  A    between atoms: _310  and  _311
REMARK  130  A    between atoms: _316  and  _318
REMARK  131  A    between atoms: _318  and  _319
REMARK  132  A    between atoms: _318  and  _321
REMARK  133  A    between atoms: _321  and  _322
REMARK  134  A    between atoms: _327  and  _328
REMARK  135  A    between atoms: _330  and  _332
REMARK  136  A    between atoms: _332  and  _333
REMARK  137  A    between atoms: _332  and  _335
REMARK  138  A    between atoms: _335  and  _336
REMARK  139  A    between atoms: _339  and  _341
REMARK  140  A    between atoms: _341  and  _342
REMARK  141  A    between atoms: _341  and  _344
REMARK  142  A    between atoms: _344  and  _345
REMARK  143  A    between atoms: _348  and  _350
REMARK  144  A    between atoms: _350  and  _351
REMARK  145  A    between atoms: _350  and  _353
REMARK  146  A    between atoms: _353  and  _354
REMARK  147  A    between atoms: _357  and  _359
REMARK  148  A    between atoms: _359  and  _360
REMARK  149  A    between atoms: _359  and  _362
REMARK  150  A    between atoms: _362  and  _363
REMARK  151  A    between atoms: _366  and  _368
REMARK  152  A    between atoms: _368  and  _369
REMARK  153  A    between atoms: _368  and  _371
REMARK  154  A    between atoms: _371  and  _372
REMARK  155  A    between atoms: _374  and  _376
REMARK  156  A    between atoms: _376  and  _377
REMARK  157  A    between atoms: _376  and  _379
REMARK  158  A    between atoms: _379  and  _380
REMARK  159  A    between atoms: _385  and  _386
REMARK  160  A    between atoms: _388  and  _390
REMARK  161  A    between atoms: _390  and  _391
REMARK  162  A    between atoms: _390  and  _393
REMARK  163  A    between atoms: _393  and  _394
REMARK  164  A    between atoms: _397  and  _399
REMARK  165  A    between atoms: _399  and  _400
REMARK  166  A    between atoms: _399  and  _402
REMARK  167  A    between atoms: _402  and  _403
REMARK  168  A    between atoms: _408  and  _410
REMARK  169  A    between atoms: _410  and  _411
REMARK  170  A    between atoms: _410  and  _413
REMARK  171  A    between atoms: _413  and  _414
REMARK  172  A    between atoms: _418  and  _419
REMARK  173  A    between atoms: _424  and  _426
REMARK  174  A    between atoms: _426  and  _427
REMARK  175  A    between atoms: _426  and  _429
REMARK  176  A    between atoms: _429  and  _430
REMARK  177  A    between atoms: _433  and  _435
REMARK  178  A    between atoms: _435  and  _436
REMARK  179  A    between atoms: _439  and  _441
REMARK  180  A    between atoms: _441  and  _442
REMARK  181  A    between atoms: _441  and  _444
REMARK  182  A    between atoms: _444  and  _445
REMARK  183  A    between atoms: _445  and  _446
REMARK  184  A    between atoms: _448  and  _450
REMARK  185  A    between atoms: _450  and  _451
REMARK  186  A    between atoms: _450  and  _453
REMARK  187  A    between atoms: _453  and  _454
REMARK  188  A    between atoms: _459  and  _461
REMARK  189  A    between atoms: _461  and  _462
REMARK  190  A    between atoms: _461  and  _464
REMARK  191  A    between atoms: _464  and  _465
REMARK  192  A    between atoms: _475  and  _477
REMARK  193  A    between atoms: _477  and  _478
REMARK  194  A    between atoms: _477  and  _480
REMARK  195  A    between atoms: _483  and  _485
REMARK  196  A    between atoms: _485  and  _486
REMARK  197  A    between atoms: _485  and  _488
REMARK  198  A    between atoms: _488  and  _489
REMARK  199  A    between atoms: _489  and  _490
REMARK  200  A    between atoms: _490  and  _491
REMARK  201  A    between atoms: _491  and  _492
REMARK  202  A    between atoms: _496  and  _498
REMARK  203  A    between atoms: _498  and  _499
REMARK  204  A    between atoms: _498  and  _501
REMARK  205  A    between atoms: _501  and  _502
REMARK  206  A    between atoms: _502  and  _503
REMARK  207  A    between atoms: _506  and  _508
REMARK  208  A    between atoms: _508  and  _509
REMARK  209  A    between atoms: _508  and  _511
REMARK  210  A    between atoms: _511  and  _512
REMARK  211  A    between atoms: _515  and  _517
REMARK  212  A    between atoms: _517  and  _518
REMARK  213  A    between atoms: _517  and  _520
REMARK  214  A    between atoms: _520  and  _521
REMARK  215  A    between atoms: _521  and  _522
REMARK  216  A    between atoms: _522  and  _523
REMARK  217  A    between atoms: _532  and  _534
REMARK  218  A    between atoms: _534  and  _535
REMARK  219  A    between atoms: _534  and  _537
REMARK  220  A    between atoms: _537  and  _538
REMARK  221  A    between atoms: _543  and  _545
REMARK  222  A    between atoms: _545  and  _546
REMARK  223  A    between atoms: _545  and  _548
REMARK  224  A    between atoms: _548  and  _549
REMARK  225  A    between atoms: _552  and  _554
REMARK  226  A    between atoms: _554  and  _555
REMARK  227  A    between atoms: _554  and  _557
REMARK  228  A    between atoms: _557  and  _558
REMARK  229  A    between atoms: _563  and  _565
REMARK  230  A    between atoms: _565  and  _566
REMARK  231  A    between atoms: _565  and  _568
REMARK  232  A    between atoms: _568  and  _569
REMARK  233  A    between atoms: _569  and  _570
REMARK  234  A    between atoms: _570  and  _571
REMARK  235  A    between atoms: _580  and  _582
REMARK  236  A    between atoms: _582  and  _583
REMARK  237  A    between atoms: _582  and  _585
REMARK  238  A    between atoms: _585  and  _586
REMARK  239  A    between atoms: _586  and  _587
REMARK  240  A    between atoms: _589  and  _591
REMARK  241  A    between atoms: _591  and  _592
REMARK  242  A    between atoms: _591  and  _594
REMARK  243  A    between atoms: _594  and  _595
REMARK  244  A    between atoms: _595  and  _596
REMARK  245  A    between atoms: _598  and  _600
REMARK  246  A    between atoms: _600  and  _601
REMARK  247  A    between atoms: _600  and  _603
REMARK  248  A    between atoms: _603  and  _604
REMARK  249  A    between atoms: _604  and  _605
REMARK  250  A    between atoms: _605  and  _606
REMARK  251  A    between atoms: _606  and  _607
REMARK  252  A    between atoms: _611  and  _613
REMARK  253  A    between atoms: _613  and  _614
REMARK  254  A    between atoms: _613  and  _616
REMARK  255  A    between atoms: _616  and  _617
REMARK                            x       y       z     vdW  Elec       q    Type
REMARK                         _______ _______ _______ _____ _____    ______ ____
ROOT
ATOM      1  O   HOH     1      48.947   1.130  28.612  0.00  0.00    +0.000 OA
ENDROOT
TORSDOF 0
REMARK  Name = ../refined-set-2016/1x8t/1x8t_pocket.pdb
REMARK  255 active torsions:
REMARK  status: ('A' for Active; 'I' for Inactive)
REMARK    1  A    between atoms: _1  and  _3
REMARK    2  A    between atoms: _3  and  _4
REMARK    3  A    between atoms: _3  and  _6
REMARK    4  A    between atoms: _6  and  _7
REMARK    5  A    between atoms: _9  and  _11
REMARK    6  A    between atoms: _11  and  _12
REMARK    7  A    between atoms: _11  and  _14
REMARK    8  A    between atoms: _14  and  _15
REMARK    9  A    between atoms: _15  and  _16
REMARK   10  A    between atoms: _16  and  _17
REMARK   11  A    between atoms: _17  and  _18
REMARK   12  A    between atoms: _22  and  _24
REMARK   13  A    between atoms: _24  and  _25
REMARK   14  A    between atoms: _24  and  _27
REMARK   15  A    between atoms: _27  and  _28
REMARK   16  A    between atoms: _30  and  _32
REMARK   17  A    between atoms: _32  and  _33
REMARK   18  A    between atoms: _32  and  _35
REMARK   19  A    between atoms: _38  and  _40
REMARK   20  A    between atoms: _40  and  _41
REMARK   21  A    between atoms: _40  and  _43
REMARK   22  A    between atoms: _43  and  _44
REMARK   23  A    between atoms: _46  and  _48
REMARK   24  A    between atoms: _48  and  _49
REMARK   25  A    between atoms: _48  and  _51
REMARK   26  A    between atoms: _51  and  _52
REMARK   27  A    between atoms: _57  and  _59
REMARK   28  A    between atoms: _59  and  _60
REMARK   29  A    between atoms: _59  and  _62
REMARK   30  A    between atoms: _62  and  _63
REMARK   31  A    between atoms: _63  and  _64
REMARK   32  A    between atoms: _64  and  _65
REMARK   33  A    between atoms: _74  and  _76
REMARK   34  A    between atoms: _76  and  _77
REMARK   35  A    between atoms: _76  and  _79
REMARK   36  A    between atoms: _79  and  _80
REMARK   37  A    between atoms: _83  and  _85
REMARK   38  A    between atoms: _85  and  _86
REMARK   39  A    between atoms: _85  and  _88
REMARK   40  A    between atoms: _88  and  _89
REMARK   41  A    between atoms: _94  and  _96
REMARK   42  A    between atoms: _96  and  _97
REMARK   43  A    between atoms: _100  and  _102
REMARK   44  A    between atoms: _102  and  _103
REMARK   45  A    between atoms: _105  and  _107
REMARK   46  A    between atoms: _107  and  _108
REMARK   47  A    between atoms: _107  and  _110
REMARK   48  A    between atoms: _110  and  _111
REMARK   49  A    between atoms: _114  and  _116
REMARK   50  A    between atoms: _116  and  _117
REMARK   51  A    between atoms: _120  and  _122
REMARK   52  A    between atoms: _122  and  _123
REMARK   53  A    between atoms: _122  and  _125
REMARK   54  A    between atoms: _125  and  _126
REMARK   55  A    between atoms: _126  and  _127
REMARK   56  A    between atoms: _129  and  _131
REMARK   57  A    between atoms: _131  and  _132
REMARK   58  A    between atoms: _131  and  _134
REMARK   59  A    between atoms: _134  and  _135
REMARK   60  A    between atoms: _135  and  _136
REMARK   61  A    between atoms: _136  and  _137
REMARK   62  A    between atoms: _147  and  _148
REMARK   63  A    between atoms: _153  and  _155
REMARK   64  A    between atoms: _155  and  _156
REMARK   65  A    between atoms: _155  and  _158
REMARK   66  A    between atoms: _158  and  _159
REMARK   67  A    between atoms: _159  and  _160
REMARK   68  A    between atoms: _160  and  _161
REMARK   69  A    between atoms: _171  and  _172
REMARK   70  A    between atoms: _177  and  _179
REMARK   71  A    between atoms: _179  and  _180
REMARK   72  A    between atoms: _182  and  _184
REMARK   73  A    between atoms: _184  and  _185
REMARK   74  A    between atoms: _184  and  _187
REMARK   75  A    between atoms: _187  and  _188
REMARK   76  A    between atoms: _190  and  _192
REMARK   77  A    between atoms: _192  and  _193
REMARK   78  A    between atoms: _192  and  _195
REMARK   79  A    between atoms: _198  and  _200
REMARK   80  A    between atoms: _200  and  _201
REMARK   81  A    between atoms: _200  and  _203
REMARK   82  A    between atoms: _203  and  _204
REMARK   83  A    between atoms: _206  and  _208
REMARK   84  A    between atoms: _208  and  _209
REMARK   85  A    between atoms: _208  and  _211
REMARK   86  A    between atoms: _211  and  _212
REMARK   87  A    between atoms: _214  and  _216
REMARK   88  A    between atoms: _216  and  _217
REMARK   89  A    between atoms: _216  and  _219
REMARK   90  A    between atoms: _219  and  _220
REMARK   91  A    between atoms: _220  and  _221
REMARK   92  A    between atoms: _226  and  _228
REMARK   93  A    between atoms: _228  and  _229
REMARK   94  A    between atoms: _228  and  _231
REMARK   95  A    between atoms: _231  and  _232
REMARK   96  A    between atoms: _238  and  _240
REMARK   97  A    between atoms: _240  and  _241
REMARK   98  A    between atoms: _240  and  _243
REMARK   99  A    between atoms: _243  and  _244
REMARK  100  A    between atoms: _247  and  _249
REMARK  101  A    between atoms: _249  and  _250
REMARK  102  A    between atoms: _249  and  _252
REMARK  103  A    between atoms: _252  and  _253
REMARK  104  A    between atoms: _256  and  _258
REMARK  105  A    between atoms: _258  and  _259
REMARK  106  A    between atoms: _262  and  _264
REMARK  107  A    between atoms: _264  and  _265
REMARK  108  A    between atoms: _264  and  _267
REMARK  109  A    between atoms: _267  and  _268
REMARK  110  A    between atoms: _268  and  _269
REMARK  111  A    between atoms: _271  and  _273
REMARK  112  A    between atoms: _273  and  _274
REMARK  113  A    between atoms: _273  and  _276
REMARK  114  A    between atoms: _276  and  _277
REMARK  115  A    between atoms: _280  and  _282
REMARK  116  A    between atoms: _282  and  _283
REMARK  117  A    between atoms: _282  and  _285
REMARK  118  A    between atoms: _288  and  _290
REMARK  119  A    between atoms: _290  and  _291
REMARK  120  A    between atoms: _290  and  _293
REMARK  121  A    between atoms: _293  and  _294
REMARK  122  A    between atoms: _296  and  _298
REMARK  123  A    between atoms: _298  and  _299
REMARK  124  A    between atoms: _298  and  _301
REMARK  125  A    between atoms: _301  and  _302
REMARK  126  A    between atoms: _302  and  _303
REMARK  127  A    between atoms: _303  and  _304
REMARK  128  A    between atoms: _304  and  _305
REMARK  129  A    between atoms: _310  and  _311
REMARK  130  A    between atoms: _316  and  _318
REMARK  131  A    between atoms: _318  and  _319
REMARK  132  A    between atoms: _318  and  _321
REMARK  133  A    between atoms: _321  and  _322
REMARK  134  A    between atoms: _327  and  _328
REMARK  135  A    between atoms: _330  and  _332
REMARK  136  A    between atoms: _332  and  _333
REMARK  137  A    between atoms: _332  and  _335
REMARK  138  A    between atoms: _335  and  _336
REMARK  139  A    between atoms: _339  and  _341
REMARK  140  A    between atoms: _341  and  _342
REMARK  141  A    between atoms: _341  and  _344
REMARK  142  A    between atoms: _344  and  _345
REMARK  143  A    between atoms: _348  and  _350
REMARK  144  A    between atoms: _350  and  _351
REMARK  145  A    between atoms: _350  and  _353
REMARK  146  A    between atoms: _353  and  _354
REMARK  147  A    between atoms: _357  and  _359
REMARK  148  A    between atoms: _359  and  _360
REMARK  149  A    between atoms: _359  and  _362
REMARK  150  A    between atoms: _362  and  _363
REMARK  151  A    between atoms: _366  and  _368
REMARK  152  A    between atoms: _368  and  _369
REMARK  153  A    between atoms: _368  and  _371
REMARK  154  A    between atoms: _371  and  _372
REMARK  155  A    between atoms: _374  and  _376
REMARK  156  A    between atoms: _376  and  _377
REMARK  157  A    between atoms: _376  and  _379
REMARK  158  A    between atoms: _379  and  _380
REMARK  159  A    between atoms: _385  and  _386
REMARK  160  A    between atoms: _388  and  _390
REMARK  161  A    between atoms: _390  and  _391
REMARK  162  A    between atoms: _390  and  _393
REMARK  163  A    between atoms: _393  and  _394
REMARK  164  A    between atoms: _397  and  _399
REMARK  165  A    between atoms: _399  and  _400
REMARK  166  A    between atoms: _399  and  _402
REMARK  167  A    between atoms: _402  and  _403
REMARK  168  A    between atoms: _408  and  _410
REMARK  169  A    between atoms: _410  and  _411
REMARK  170  A    between atoms: _410  and  _413
REMARK  171  A    between atoms: _413  and  _414
REMARK  172  A    between atoms: _418  and  _419
REMARK  173  A    between atoms: _424  and  _426
REMARK  174  A    between atoms: _426  and  _427
REMARK  175  A    between atoms: _426  and  _429
REMARK  176  A    between atoms: _429  and  _430
REMARK  177  A    between atoms: _433  and  _435
REMARK  178  A    between atoms: _435  and  _436
REMARK  179  A    between atoms: _439  and  _441
REMARK  180  A    between atoms: _441  and  _442
REMARK  181  A    between atoms: _441  and  _444
REMARK  182  A    between atoms: _444  and  _445
REMARK  183  A    between atoms: _445  and  _446
REMARK  184  A    between atoms: _448  and  _450
REMARK  185  A    between atoms: _450  and  _451
REMARK  186  A    between atoms: _450  and  _453
REMARK  187  A    between atoms: _453  and  _454
REMARK  188  A    between atoms: _459  and  _461
REMARK  189  A    between atoms: _461  and  _462
REMARK  190  A    between atoms: _461  and  _464
REMARK  191  A    between atoms: _464  and  _465
REMARK  192  A    between atoms: _475  and  _477
REMARK  193  A    between atoms: _477  and  _478
REMARK  194  A    between atoms: _477  and  _480
REMARK  195  A    between atoms: _483  and  _485
REMARK  196  A    between atoms: _485  and  _486
REMARK  197  A    between atoms: _485  and  _488
REMARK  198  A    between atoms: _488  and  _489
REMARK  199  A    between atoms: _489  and  _490
REMARK  200  A    between atoms: _490  and  _491
REMARK  201  A    between atoms: _491  and  _492
REMARK  202  A    between atoms: _496  and  _498
REMARK  203  A    between atoms: _498  and  _499
REMARK  204  A    between atoms: _498  and  _501
REMARK  205  A    between atoms: _501  and  _502
REMARK  206  A    between atoms: _502  and  _503
REMARK  207  A    between atoms: _506  and  _508
REMARK  208  A    between atoms: _508  and  _509
REMARK  209  A    between atoms: _508  and  _511
REMARK  210  A    between atoms: _511  and  _512
REMARK  211  A    between atoms: _515  and  _517
REMARK  212  A    between atoms: _517  and  _518
REMARK  213  A    between atoms: _517  and  _520
REMARK  214  A    between atoms: _520  and  _521
REMARK  215  A    between atoms: _521  and  _522
REMARK  216  A    between atoms: _522  and  _523
REMARK  217  A    between atoms: _532  and  _534
REMARK  218  A    between atoms: _534  and  _535
REMARK  219  A    between atoms: _534  and  _537
REMARK  220  A    between atoms: _537  and  _538
REMARK  221  A    between atoms: _543  and  _545
REMARK  222  A    between atoms: _545  and  _546
REMARK  223  A    between atoms: _545  and  _548
REMARK  224  A    between atoms: _548  and  _549
REMARK  225  A    between atoms: _552  and  _554
REMARK  226  A    between atoms: _554  and  _555
REMARK  227  A    between atoms: _554  and  _557
REMARK  228  A    between atoms: _557  and  _558
REMARK  229  A    between atoms: _563  and  _565
REMARK  230  A    between atoms: _565  and  _566
REMARK  231  A    between atoms: _565  and  _568
REMARK  232  A    between atoms: _568  and  _569
REMARK  233  A    between atoms: _569  and  _570
REMARK  234  A    between atoms: _570  and  _571
REMARK  235  A    between atoms: _580  and  _582
REMARK  236  A    between atoms: _582  and  _583
REMARK  237  A    between atoms: _582  and  _585
REMARK  238  A    between atoms: _585  and  _586
REMARK  239  A    between atoms: _586  and  _587
REMARK  240  A    between atoms: _589  and  _591
REMARK  241  A    between atoms: _591  and  _592
REMARK  242  A    between atoms: _591  and  _594
REMARK  243  A    between atoms: _594  and  _595
REMARK  244  A    between atoms: _595  and  _596
REMARK  245  A    between atoms: _598  and  _600
REMARK  246  A    between atoms: _600  and  _601
REMARK  247  A    between atoms: _600  and  _603
REMARK  248  A    between atoms: _603  and  _604
REMARK  249  A    between atoms: _604  and  _605
REMARK  250  A    between atoms: _605  and  _606
REMARK  251  A    between atoms: _606  and  _607
REMARK  252  A    between atoms: _611  and  _613
REMARK  253  A    between atoms: _613  and  _614
REMARK  254  A    between atoms: _613  and  _616
REMARK  255  A    between atoms: _616  and  _617
REMARK                            x       y       z     vdW  Elec       q    Type
REMARK                         _______ _______ _______ _____ _____    ______ ____
ROOT
ATOM      1  O   HOH     1      58.781  16.850  20.677  0.00  0.00    +0.000 OA
ENDROOT
TORSDOF 0
REMARK  Name = ../refined-set-2016/1x8t/1x8t_pocket.pdb
REMARK  255 active torsions:
REMARK  status: ('A' for Active; 'I' for Inactive)
REMARK    1  A    between atoms: _1  and  _3
REMARK    2  A    between atoms: _3  and  _4
REMARK    3  A    between atoms: _3  and  _6
REMARK    4  A    between atoms: _6  and  _7
REMARK    5  A    between atoms: _9  and  _11
REMARK    6  A    between atoms: _11  and  _12
REMARK    7  A    between atoms: _11  and  _14
REMARK    8  A    between atoms: _14  and  _15
REMARK    9  A    between atoms: _15  and  _16
REMARK   10  A    between atoms: _16  and  _17
REMARK   11  A    between atoms: _17  and  _18
REMARK   12  A    between atoms: _22  and  _24
REMARK   13  A    between atoms: _24  and  _25
REMARK   14  A    between atoms: _24  and  _27
REMARK   15  A    between atoms: _27  and  _28
REMARK   16  A    between atoms: _30  and  _32
REMARK   17  A    between atoms: _32  and  _33
REMARK   18  A    between atoms: _32  and  _35
REMARK   19  A    between atoms: _38  and  _40
REMARK   20  A    between atoms: _40  and  _41
REMARK   21  A    between atoms: _40  and  _43
REMARK   22  A    between atoms: _43  and  _44
REMARK   23  A    between atoms: _46  and  _48
REMARK   24  A    between atoms: _48  and  _49
REMARK   25  A    between atoms: _48  and  _51
REMARK   26  A    between atoms: _51  and  _52
REMARK   27  A    between atoms: _57  and  _59
REMARK   28  A    between atoms: _59  and  _60
REMARK   29  A    between atoms: _59  and  _62
REMARK   30  A    between atoms: _62  and  _63
REMARK   31  A    between atoms: _63  and  _64
REMARK   32  A    between atoms: _64  and  _65
REMARK   33  A    between atoms: _74  and  _76
REMARK   34  A    between atoms: _76  and  _77
REMARK   35  A    between atoms: _76  and  _79
REMARK   36  A    between atoms: _79  and  _80
REMARK   37  A    between atoms: _83  and  _85
REMARK   38  A    between atoms: _85  and  _86
REMARK   39  A    between atoms: _85  and  _88
REMARK   40  A    between atoms: _88  and  _89
REMARK   41  A    between atoms: _94  and  _96
REMARK   42  A    between atoms: _96  and  _97
REMARK   43  A    between atoms: _100  and  _102
REMARK   44  A    between atoms: _102  and  _103
REMARK   45  A    between atoms: _105  and  _107
REMARK   46  A    between atoms: _107  and  _108
REMARK   47  A    between atoms: _107  and  _110
REMARK   48  A    between atoms: _110  and  _111
REMARK   49  A    between atoms: _114  and  _116
REMARK   50  A    between atoms: _116  and  _117
REMARK   51  A    between atoms: _120  and  _122
REMARK   52  A    between atoms: _122  and  _123
REMARK   53  A    between atoms: _122  and  _125
REMARK   54  A    between atoms: _125  and  _126
REMARK   55  A    between atoms: _126  and  _127
REMARK   56  A    between atoms: _129  and  _131
REMARK   57  A    between atoms: _131  and  _132
REMARK   58  A    between atoms: _131  and  _134
REMARK   59  A    between atoms: _134  and  _135
REMARK   60  A    between atoms: _135  and  _136
REMARK   61  A    between atoms: _136  and  _137
REMARK   62  A    between atoms: _147  and  _148
REMARK   63  A    between atoms: _153  and  _155
REMARK   64  A    between atoms: _155  and  _156
REMARK   65  A    between atoms: _155  and  _158
REMARK   66  A    between atoms: _158  and  _159
REMARK   67  A    between atoms: _159  and  _160
REMARK   68  A    between atoms: _160  and  _161
REMARK   69  A    between atoms: _171  and  _172
REMARK   70  A    between atoms: _177  and  _179
REMARK   71  A    between atoms: _179  and  _180
REMARK   72  A    between atoms: _182  and  _184
REMARK   73  A    between atoms: _184  and  _185
REMARK   74  A    between atoms: _184  and  _187
REMARK   75  A    between atoms: _187  and  _188
REMARK   76  A    between atoms: _190  and  _192
REMARK   77  A    between atoms: _192  and  _193
REMARK   78  A    between atoms: _192  and  _195
REMARK   79  A    between atoms: _198  and  _200
REMARK   80  A    between atoms: _200  and  _201
REMARK   81  A    between atoms: _200  and  _203
REMARK   82  A    between atoms: _203  and  _204
REMARK   83  A    between atoms: _206  and  _208
REMARK   84  A    between atoms: _208  and  _209
REMARK   85  A    between atoms: _208  and  _211
REMARK   86  A    between atoms: _211  and  _212
REMARK   87  A    between atoms: _214  and  _216
REMARK   88  A    between atoms: _216  and  _217
REMARK   89  A    between atoms: _216  and  _219
REMARK   90  A    between atoms: _219  and  _220
REMARK   91  A    between atoms: _220  and  _221
REMARK   92  A    between atoms: _226  and  _228
REMARK   93  A    between atoms: _228  and  _229
REMARK   94  A    between atoms: _228  and  _231
REMARK   95  A    between atoms: _231  and  _232
REMARK   96  A    between atoms: _238  and  _240
REMARK   97  A    between atoms: _240  and  _241
REMARK   98  A    between atoms: _240  and  _243
REMARK   99  A    between atoms: _243  and  _244
REMARK  100  A    between atoms: _247  and  _249
REMARK  101  A    between atoms: _249  and  _250
REMARK  102  A    between atoms: _249  and  _252
REMARK  103  A    between atoms: _252  and  _253
REMARK  104  A    between atoms: _256  and  _258
REMARK  105  A    between atoms: _258  and  _259
REMARK  106  A    between atoms: _262  and  _264
REMARK  107  A    between atoms: _264  and  _265
REMARK  108  A    between atoms: _264  and  _267
REMARK  109  A    between atoms: _267  and  _268
REMARK  110  A    between atoms: _268  and  _269
REMARK  111  A    between atoms: _271  and  _273
REMARK  112  A    between atoms: _273  and  _274
REMARK  113  A    between atoms: _273  and  _276
REMARK  114  A    between atoms: _276  and  _277
REMARK  115  A    between atoms: _280  and  _282
REMARK  116  A    between atoms: _282  and  _283
REMARK  117  A    between atoms: _282  and  _285
REMARK  118  A    between atoms: _288  and  _290
REMARK  119  A    between atoms: _290  and  _291
REMARK  120  A    between atoms: _290  and  _293
REMARK  121  A    between atoms: _293  and  _294
REMARK  122  A    between atoms: _296  and  _298
REMARK  123  A    between atoms: _298  and  _299
REMARK  124  A    between atoms: _298  and  _301
REMARK  125  A    between atoms: _301  and  _302
REMARK  126  A    between atoms: _302  and  _303
REMARK  127  A    between atoms: _303  and  _304
REMARK  128  A    between atoms: _304  and  _305
REMARK  129  A    between atoms: _310  and  _311
REMARK  130  A    between atoms: _316  and  _318
REMARK  131  A    between atoms: _318  and  _319
REMARK  132  A    between atoms: _318  and  _321
REMARK  133  A    between atoms: _321  and  _322
REMARK  134  A    between atoms: _327  and  _328
REMARK  135  A    between atoms: _330  and  _332
REMARK  136  A    between atoms: _332  and  _333
REMARK  137  A    between atoms: _332  and  _335
REMARK  138  A    between atoms: _335  and  _336
REMARK  139  A    between atoms: _339  and  _341
REMARK  140  A    between atoms: _341  and  _342
REMARK  141  A    between atoms: _341  and  _344
REMARK  142  A    between atoms: _344  and  _345
REMARK  143  A    between atoms: _348  and  _350
REMARK  144  A    between atoms: _350  and  _351
REMARK  145  A    between atoms: _350  and  _353
REMARK  146  A    between atoms: _353  and  _354
REMARK  147  A    between atoms: _357  and  _359
REMARK  148  A    between atoms: _359  and  _360
REMARK  149  A    between atoms: _359  and  _362
REMARK  150  A    between atoms: _362  and  _363
REMARK  151  A    between atoms: _366  and  _368
REMARK  152  A    between atoms: _368  and  _369
REMARK  153  A    between atoms: _368  and  _371
REMARK  154  A    between atoms: _371  and  _372
REMARK  155  A    between atoms: _374  and  _376
REMARK  156  A    between atoms: _376  and  _377
REMARK  157  A    between atoms: _376  and  _379
REMARK  158  A    between atoms: _379  and  _380
REMARK  159  A    between atoms: _385  and  _386
REMARK  160  A    between atoms: _388  and  _390
REMARK  161  A    between atoms: _390  and  _391
REMARK  162  A    between atoms: _390  and  _393
REMARK  163  A    between atoms: _393  and  _394
REMARK  164  A    between atoms: _397  and  _399
REMARK  165  A    between atoms: _399  and  _400
REMARK  166  A    between atoms: _399  and  _402
REMARK  167  A    between atoms: _402  and  _403
REMARK  168  A    between atoms: _408  and  _410
REMARK  169  A    between atoms: _410  and  _411
REMARK  170  A    between atoms: _410  and  _413
REMARK  171  A    between atoms: _413  and  _414
REMARK  172  A    between atoms: _418  and  _419
REMARK  173  A    between atoms: _424  and  _426
REMARK  174  A    between atoms: _426  and  _427
REMARK  175  A    between atoms: _426  and  _429
REMARK  176  A    between atoms: _429  and  _430
REMARK  177  A    between atoms: _433  and  _435
REMARK  178  A    between atoms: _435  and  _436
REMARK  179  A    between atoms: _439  and  _441
REMARK  180  A    between atoms: _441  and  _442
REMARK  181  A    between atoms: _441  and  _444
REMARK  182  A    between atoms: _444  and  _445
REMARK  183  A    between atoms: _445  and  _446
REMARK  184  A    between atoms: _448  and  _450
REMARK  185  A    between atoms: _450  and  _451
REMARK  186  A    between atoms: _450  and  _453
REMARK  187  A    between atoms: _453  and  _454
REMARK  188  A    between atoms: _459  and  _461
REMARK  189  A    between atoms: _461  and  _462
REMARK  190  A    between atoms: _461  and  _464
REMARK  191  A    between atoms: _464  and  _465
REMARK  192  A    between atoms: _475  and  _477
REMARK  193  A    between atoms: _477  and  _478
REMARK  194  A    between atoms: _477  and  _480
REMARK  195  A    between atoms: _483  and  _485
REMARK  196  A    between atoms: _485  and  _486
REMARK  197  A    between atoms: _485  and  _488
REMARK  198  A    between atoms: _488  and  _489
REMARK  199  A    between atoms: _489  and  _490
REMARK  200  A    between atoms: _490  and  _491
REMARK  201  A    between atoms: _491  and  _492
REMARK  202  A    between atoms: _496  and  _498
REMARK  203  A    between atoms: _498  and  _499
REMARK  204  A    between atoms: _498  and  _501
REMARK  205  A    between atoms: _501  and  _502
REMARK  206  A    between atoms: _502  and  _503
REMARK  207  A    between atoms: _506  and  _508
REMARK  208  A    between atoms: _508  and  _509
REMARK  209  A    between atoms: _508  and  _511
REMARK  210  A    between atoms: _511  and  _512
REMARK  211  A    between atoms: _515  and  _517
REMARK  212  A    between atoms: _517  and  _518
REMARK  213  A    between atoms: _517  and  _520
REMARK  214  A    between atoms: _520  and  _521
REMARK  215  A    between atoms: _521  and  _522
REMARK  216  A    between atoms: _522  and  _523
REMARK  217  A    between atoms: _532  and  _534
REMARK  218  A    between atoms: _534  and  _535
REMARK  219  A    between atoms: _534  and  _537
REMARK  220  A    between atoms: _537  and  _538
REMARK  221  A    between atoms: _543  and  _545
REMARK  222  A    between atoms: _545  and  _546
REMARK  223  A    between atoms: _545  and  _548
REMARK  224  A    between atoms: _548  and  _549
REMARK  225  A    between atoms: _552  and  _554
REMARK  226  A    between atoms: _554  and  _555
REMARK  227  A    between atoms: _554  and  _557
REMARK  228  A    between atoms: _557  and  _558
REMARK  229  A    between atoms: _563  and  _565
REMARK  230  A    between atoms: _565  and  _566
REMARK  231  A    between atoms: _565  and  _568
REMARK  232  A    between atoms: _568  and  _569
REMARK  233  A    between atoms: _569  and  _570
REMARK  234  A    between atoms: _570  and  _571
REMARK  235  A    between atoms: _580  and  _582
REMARK  236  A    between atoms: _582  and  _583
REMARK  237  A    between atoms: _582  and  _585
REMARK  238  A    between atoms: _585  and  _586
REMARK  239  A    between atoms: _586  and  _587
REMARK  240  A    between atoms: _589  and  _591
REMARK  241  A    between atoms: _591  and  _592
REMARK  242  A    between atoms: _591  and  _594
REMARK  243  A    between atoms: _594  and  _595
REMARK  244  A    between atoms: _595  and  _596
REMARK  245  A    between atoms: _598  and  _600
REMARK  246  A    between atoms: _600  and  _601
REMARK  247  A    between atoms: _600  and  _603
REMARK  248  A    between atoms: _603  and  _604
REMARK  249  A    between atoms: _604  and  _605
REMARK  250  A    between atoms: _605  and  _606
REMARK  251  A    between atoms: _606  and  _607
REMARK  252  A    between atoms: _611  and  _613
REMARK  253  A    between atoms: _613  and  _614
REMARK  254  A    between atoms: _613  and  _616
REMARK  255  A    between atoms: _616  and  _617
REMARK                            x       y       z     vdW  Elec       q    Type
REMARK                         _______ _______ _______ _____ _____    ______ ____
ROOT
ATOM      1  O   HOH     1      61.608   6.043  22.246  0.00  0.00    +0.000 OA
ENDROOT
TORSDOF 0
REMARK  Name = ../refined-set-2016/1x8t/1x8t_pocket.pdb
REMARK  255 active torsions:
REMARK  status: ('A' for Active; 'I' for Inactive)
REMARK    1  A    between atoms: _1  and  _3
REMARK    2  A    between atoms: _3  and  _4
REMARK    3  A    between atoms: _3  and  _6
REMARK    4  A    between atoms: _6  and  _7
REMARK    5  A    between atoms: _9  and  _11
REMARK    6  A    between atoms: _11  and  _12
REMARK    7  A    between atoms: _11  and  _14
REMARK    8  A    between atoms: _14  and  _15
REMARK    9  A    between atoms: _15  and  _16
REMARK   10  A    between atoms: _16  and  _17
REMARK   11  A    between atoms: _17  and  _18
REMARK   12  A    between atoms: _22  and  _24
REMARK   13  A    between atoms: _24  and  _25
REMARK   14  A    between atoms: _24  and  _27
REMARK   15  A    between atoms: _27  and  _28
REMARK   16  A    between atoms: _30  and  _32
REMARK   17  A    between atoms: _32  and  _33
REMARK   18  A    between atoms: _32  and  _35
REMARK   19  A    between atoms: _38  and  _40
REMARK   20  A    between atoms: _40  and  _41
REMARK   21  A    between atoms: _40  and  _43
REMARK   22  A    between atoms: _43  and  _44
REMARK   23  A    between atoms: _46  and  _48
REMARK   24  A    between atoms: _48  and  _49
REMARK   25  A    between atoms: _48  and  _51
REMARK   26  A    between atoms: _51  and  _52
REMARK   27  A    between atoms: _57  and  _59
REMARK   28  A    between atoms: _59  and  _60
REMARK   29  A    between atoms: _59  and  _62
REMARK   30  A    between atoms: _62  and  _63
REMARK   31  A    between atoms: _63  and  _64
REMARK   32  A    between atoms: _64  and  _65
REMARK   33  A    between atoms: _74  and  _76
REMARK   34  A    between atoms: _76  and  _77
REMARK   35  A    between atoms: _76  and  _79
REMARK   36  A    between atoms: _79  and  _80
REMARK   37  A    between atoms: _83  and  _85
REMARK   38  A    between atoms: _85  and  _86
REMARK   39  A    between atoms: _85  and  _88
REMARK   40  A    between atoms: _88  and  _89
REMARK   41  A    between atoms: _94  and  _96
REMARK   42  A    between atoms: _96  and  _97
REMARK   43  A    between atoms: _100  and  _102
REMARK   44  A    between atoms: _102  and  _103
REMARK   45  A    between atoms: _105  and  _107
REMARK   46  A    between atoms: _107  and  _108
REMARK   47  A    between atoms: _107  and  _110
REMARK   48  A    between atoms: _110  and  _111
REMARK   49  A    between atoms: _114  and  _116
REMARK   50  A    between atoms: _116  and  _117
REMARK   51  A    between atoms: _120  and  _122
REMARK   52  A    between atoms: _122  and  _123
REMARK   53  A    between atoms: _122  and  _125
REMARK   54  A    between atoms: _125  and  _126
REMARK   55  A    between atoms: _126  and  _127
REMARK   56  A    between atoms: _129  and  _131
REMARK   57  A    between atoms: _131  and  _132
REMARK   58  A    between atoms: _131  and  _134
REMARK   59  A    between atoms: _134  and  _135
REMARK   60  A    between atoms: _135  and  _136
REMARK   61  A    between atoms: _136  and  _137
REMARK   62  A    between atoms: _147  and  _148
REMARK   63  A    between atoms: _153  and  _155
REMARK   64  A    between atoms: _155  and  _156
REMARK   65  A    between atoms: _155  and  _158
REMARK   66  A    between atoms: _158  and  _159
REMARK   67  A    between atoms: _159  and  _160
REMARK   68  A    between atoms: _160  and  _161
REMARK   69  A    between atoms: _171  and  _172
REMARK   70  A    between atoms: _177  and  _179
REMARK   71  A    between atoms: _179  and  _180
REMARK   72  A    between atoms: _182  and  _184
REMARK   73  A    between atoms: _184  and  _185
REMARK   74  A    between atoms: _184  and  _187
REMARK   75  A    between atoms: _187  and  _188
REMARK   76  A    between atoms: _190  and  _192
REMARK   77  A    between atoms: _192  and  _193
REMARK   78  A    between atoms: _192  and  _195
REMARK   79  A    between atoms: _198  and  _200
REMARK   80  A    between atoms: _200  and  _201
REMARK   81  A    between atoms: _200  and  _203
REMARK   82  A    between atoms: _203  and  _204
REMARK   83  A    between atoms: _206  and  _208
REMARK   84  A    between atoms: _208  and  _209
REMARK   85  A    between atoms: _208  and  _211
REMARK   86  A    between atoms: _211  and  _212
REMARK   87  A    between atoms: _214  and  _216
REMARK   88  A    between atoms: _216  and  _217
REMARK   89  A    between atoms: _216  and  _219
REMARK   90  A    between atoms: _219  and  _220
REMARK   91  A    between atoms: _220  and  _221
REMARK   92  A    between atoms: _226  and  _228
REMARK   93  A    between atoms: _228  and  _229
REMARK   94  A    between atoms: _228  and  _231
REMARK   95  A    between atoms: _231  and  _232
REMARK   96  A    between atoms: _238  and  _240
REMARK   97  A    between atoms: _240  and  _241
REMARK   98  A    between atoms: _240  and  _243
REMARK   99  A    between atoms: _243  and  _244
REMARK  100  A    between atoms: _247  and  _249
REMARK  101  A    between atoms: _249  and  _250
REMARK  102  A    between atoms: _249  and  _252
REMARK  103  A    between atoms: _252  and  _253
REMARK  104  A    between atoms: _256  and  _258
REMARK  105  A    between atoms: _258  and  _259
REMARK  106  A    between atoms: _262  and  _264
REMARK  107  A    between atoms: _264  and  _265
REMARK  108  A    between atoms: _264  and  _267
REMARK  109  A    between atoms: _267  and  _268
REMARK  110  A    between atoms: _268  and  _269
REMARK  111  A    between atoms: _271  and  _273
REMARK  112  A    between atoms: _273  and  _274
REMARK  113  A    between atoms: _273  and  _276
REMARK  114  A    between atoms: _276  and  _277
REMARK  115  A    between atoms: _280  and  _282
REMARK  116  A    between atoms: _282  and  _283
REMARK  117  A    between atoms: _282  and  _285
REMARK  118  A    between atoms: _288  and  _290
REMARK  119  A    between atoms: _290  and  _291
REMARK  120  A    between atoms: _290  and  _293
REMARK  121  A    between atoms: _293  and  _294
REMARK  122  A    between atoms: _296  and  _298
REMARK  123  A    between atoms: _298  and  _299
REMARK  124  A    between atoms: _298  and  _301
REMARK  125  A    between atoms: _301  and  _302
REMARK  126  A    between atoms: _302  and  _303
REMARK  127  A    between atoms: _303  and  _304
REMARK  128  A    between atoms: _304  and  _305
REMARK  129  A    between atoms: _310  and  _311
REMARK  130  A    between atoms: _316  and  _318
REMARK  131  A    between atoms: _318  and  _319
REMARK  132  A    between atoms: _318  and  _321
REMARK  133  A    between atoms: _321  and  _322
REMARK  134  A    between atoms: _327  and  _328
REMARK  135  A    between atoms: _330  and  _332
REMARK  136  A    between atoms: _332  and  _333
REMARK  137  A    between atoms: _332  and  _335
REMARK  138  A    between atoms: _335  and  _336
REMARK  139  A    between atoms: _339  and  _341
REMARK  140  A    between atoms: _341  and  _342
REMARK  141  A    between atoms: _341  and  _344
REMARK  142  A    between atoms: _344  and  _345
REMARK  143  A    between atoms: _348  and  _350
REMARK  144  A    between atoms: _350  and  _351
REMARK  145  A    between atoms: _350  and  _353
REMARK  146  A    between atoms: _353  and  _354
REMARK  147  A    between atoms: _357  and  _359
REMARK  148  A    between atoms: _359  and  _360
REMARK  149  A    between atoms: _359  and  _362
REMARK  150  A    between atoms: _362  and  _363
REMARK  151  A    between atoms: _366  and  _368
REMARK  152  A    between atoms: _368  and  _369
REMARK  153  A    between atoms: _368  and  _371
REMARK  154  A    between atoms: _371  and  _372
REMARK  155  A    between atoms: _374  and  _376
REMARK  156  A    between atoms: _376  and  _377
REMARK  157  A    between atoms: _376  and  _379
REMARK  158  A    between atoms: _379  and  _380
REMARK  159  A    between atoms: _385  and  _386
REMARK  160  A    between atoms: _388  and  _390
REMARK  161  A    between atoms: _390  and  _391
REMARK  162  A    between atoms: _390  and  _393
REMARK  163  A    between atoms: _393  and  _394
REMARK  164  A    between atoms: _397  and  _399
REMARK  165  A    between atoms: _399  and  _400
REMARK  166  A    between atoms: _399  and  _402
REMARK  167  A    between atoms: _402  and  _403
REMARK  168  A    between atoms: _408  and  _410
REMARK  169  A    between atoms: _410  and  _411
REMARK  170  A    between atoms: _410  and  _413
REMARK  171  A    between atoms: _413  and  _414
REMARK  172  A    between atoms: _418  and  _419
REMARK  173  A    between atoms: _424  and  _426
REMARK  174  A    between atoms: _426  and  _427
REMARK  175  A    between atoms: _426  and  _429
REMARK  176  A    between atoms: _429  and  _430
REMARK  177  A    between atoms: _433  and  _435
REMARK  178  A    between atoms: _435  and  _436
REMARK  179  A    between atoms: _439  and  _441
REMARK  180  A    between atoms: _441  and  _442
REMARK  181  A    between atoms: _441  and  _444
REMARK  182  A    between atoms: _444  and  _445
REMARK  183  A    between atoms: _445  and  _446
REMARK  184  A    between atoms: _448  and  _450
REMARK  185  A    between atoms: _450  and  _451
REMARK  186  A    between atoms: _450  and  _453
REMARK  187  A    between atoms: _453  and  _454
REMARK  188  A    between atoms: _459  and  _461
REMARK  189  A    between atoms: _461  and  _462
REMARK  190  A    between atoms: _461  and  _464
REMARK  191  A    between atoms: _464  and  _465
REMARK  192  A    between atoms: _475  and  _477
REMARK  193  A    between atoms: _477  and  _478
REMARK  194  A    between atoms: _477  and  _480
REMARK  195  A    between atoms: _483  and  _485
REMARK  196  A    between atoms: _485  and  _486
REMARK  197  A    between atoms: _485  and  _488
REMARK  198  A    between atoms: _488  and  _489
REMARK  199  A    between atoms: _489  and  _490
REMARK  200  A    between atoms: _490  and  _491
REMARK  201  A    between atoms: _491  and  _492
REMARK  202  A    between atoms: _496  and  _498
REMARK  203  A    between atoms: _498  and  _499
REMARK  204  A    between atoms: _498  and  _501
REMARK  205  A    between atoms: _501  and  _502
REMARK  206  A    between atoms: _502  and  _503
REMARK  207  A    between atoms: _506  and  _508
REMARK  208  A    between atoms: _508  and  _509
REMARK  209  A    between atoms: _508  and  _511
REMARK  210  A    between atoms: _511  and  _512
REMARK  211  A    between atoms: _515  and  _517
REMARK  212  A    between atoms: _517  and  _518
REMARK  213  A    between atoms: _517  and  _520
REMARK  214  A    between atoms: _520  and  _521
REMARK  215  A    between atoms: _521  and  _522
REMARK  216  A    between atoms: _522  and  _523
REMARK  217  A    between atoms: _532  and  _534
REMARK  218  A    between atoms: _534  and  _535
REMARK  219  A    between atoms: _534  and  _537
REMARK  220  A    between atoms: _537  and  _538
REMARK  221  A    between atoms: _543  and  _545
REMARK  222  A    between atoms: _545  and  _546
REMARK  223  A    between atoms: _545  and  _548
REMARK  224  A    between atoms: _548  and  _549
REMARK  225  A    between atoms: _552  and  _554
REMARK  226  A    between atoms: _554  and  _555
REMARK  227  A    between atoms: _554  and  _557
REMARK  228  A    between atoms: _557  and  _558
REMARK  229  A    between atoms: _563  and  _565
REMARK  230  A    between atoms: _565  and  _566
REMARK  231  A    between atoms: _565  and  _568
REMARK  232  A    between atoms: _568  and  _569
REMARK  233  A    between atoms: _569  and  _570
REMARK  234  A    between atoms: _570  and  _571
REMARK  235  A    between atoms: _580  and  _582
REMARK  236  A    between atoms: _582  and  _583
REMARK  237  A    between atoms: _582  and  _585
REMARK  238  A    between atoms: _585  and  _586
REMARK  239  A    between atoms: _586  and  _587
REMARK  240  A    between atoms: _589  and  _591
REMARK  241  A    between atoms: _591  and  _592
REMARK  242  A    between atoms: _591  and  _594
REMARK  243  A    between atoms: _594  and  _595
REMARK  244  A    between atoms: _595  and  _596
REMARK  245  A    between atoms: _598  and  _600
REMARK  246  A    between atoms: _600  and  _601
REMARK  247  A    between atoms: _600  and  _603
REMARK  248  A    between atoms: _603  and  _604
REMARK  249  A    between atoms: _604  and  _605
REMARK  250  A    between atoms: _605  and  _606
REMARK  251  A    between atoms: _606  and  _607
REMARK  252  A    between atoms: _611  and  _613
REMARK  253  A    between atoms: _613  and  _614
REMARK  254  A    between atoms: _613  and  _616
REMARK  255  A    between atoms: _616  and  _617
REMARK                            x       y       z     vdW  Elec       q    Type
REMARK                         _______ _______ _______ _____ _____    ______ ____
ROOT
ATOM      1  O   HOH     1      59.045   8.602  25.105  0.00  0.00    +0.000 OA
ENDROOT
TORSDOF 0
REMARK  Name = ../refined-set-2016/1x8t/1x8t_pocket.pdb
REMARK  255 active torsions:
REMARK  status: ('A' for Active; 'I' for Inactive)
REMARK    1  A    between atoms: _1  and  _3
REMARK    2  A    between atoms: _3  and  _4
REMARK    3  A    between atoms: _3  and  _6
REMARK    4  A    between atoms: _6  and  _7
REMARK    5  A    between atoms: _9  and  _11
REMARK    6  A    between atoms: _11  and  _12
REMARK    7  A    between atoms: _11  and  _14
REMARK    8  A    between atoms: _14  and  _15
REMARK    9  A    between atoms: _15  and  _16
REMARK   10  A    between atoms: _16  and  _17
REMARK   11  A    between atoms: _17  and  _18
REMARK   12  A    between atoms: _22  and  _24
REMARK   13  A    between atoms: _24  and  _25
REMARK   14  A    between atoms: _24  and  _27
REMARK   15  A    between atoms: _27  and  _28
REMARK   16  A    between atoms: _30  and  _32
REMARK   17  A    between atoms: _32  and  _33
REMARK   18  A    between atoms: _32  and  _35
REMARK   19  A    between atoms: _38  and  _40
REMARK   20  A    between atoms: _40  and  _41
REMARK   21  A    between atoms: _40  and  _43
REMARK   22  A    between atoms: _43  and  _44
REMARK   23  A    between atoms: _46  and  _48
REMARK   24  A    between atoms: _48  and  _49
REMARK   25  A    between atoms: _48  and  _51
REMARK   26  A    between atoms: _51  and  _52
REMARK   27  A    between atoms: _57  and  _59
REMARK   28  A    between atoms: _59  and  _60
REMARK   29  A    between atoms: _59  and  _62
REMARK   30  A    between atoms: _62  and  _63
REMARK   31  A    between atoms: _63  and  _64
REMARK   32  A    between atoms: _64  and  _65
REMARK   33  A    between atoms: _74  and  _76
REMARK   34  A    between atoms: _76  and  _77
REMARK   35  A    between atoms: _76  and  _79
REMARK   36  A    between atoms: _79  and  _80
REMARK   37  A    between atoms: _83  and  _85
REMARK   38  A    between atoms: _85  and  _86
REMARK   39  A    between atoms: _85  and  _88
REMARK   40  A    between atoms: _88  and  _89
REMARK   41  A    between atoms: _94  and  _96
REMARK   42  A    between atoms: _96  and  _97
REMARK   43  A    between atoms: _100  and  _102
REMARK   44  A    between atoms: _102  and  _103
REMARK   45  A    between atoms: _105  and  _107
REMARK   46  A    between atoms: _107  and  _108
REMARK   47  A    between atoms: _107  and  _110
REMARK   48  A    between atoms: _110  and  _111
REMARK   49  A    between atoms: _114  and  _116
REMARK   50  A    between atoms: _116  and  _117
REMARK   51  A    between atoms: _120  and  _122
REMARK   52  A    between atoms: _122  and  _123
REMARK   53  A    between atoms: _122  and  _125
REMARK   54  A    between atoms: _125  and  _126
REMARK   55  A    between atoms: _126  and  _127
REMARK   56  A    between atoms: _129  and  _131
REMARK   57  A    between atoms: _131  and  _132
REMARK   58  A    between atoms: _131  and  _134
REMARK   59  A    between atoms: _134  and  _135
REMARK   60  A    between atoms: _135  and  _136
REMARK   61  A    between atoms: _136  and  _137
REMARK   62  A    between atoms: _147  and  _148
REMARK   63  A    between atoms: _153  and  _155
REMARK   64  A    between atoms: _155  and  _156
REMARK   65  A    between atoms: _155  and  _158
REMARK   66  A    between atoms: _158  and  _159
REMARK   67  A    between atoms: _159  and  _160
REMARK   68  A    between atoms: _160  and  _161
REMARK   69  A    between atoms: _171  and  _172
REMARK   70  A    between atoms: _177  and  _179
REMARK   71  A    between atoms: _179  and  _180
REMARK   72  A    between atoms: _182  and  _184
REMARK   73  A    between atoms: _184  and  _185
REMARK   74  A    between atoms: _184  and  _187
REMARK   75  A    between atoms: _187  and  _188
REMARK   76  A    between atoms: _190  and  _192
REMARK   77  A    between atoms: _192  and  _193
REMARK   78  A    between atoms: _192  and  _195
REMARK   79  A    between atoms: _198  and  _200
REMARK   80  A    between atoms: _200  and  _201
REMARK   81  A    between atoms: _200  and  _203
REMARK   82  A    between atoms: _203  and  _204
REMARK   83  A    between atoms: _206  and  _208
REMARK   84  A    between atoms: _208  and  _209
REMARK   85  A    between atoms: _208  and  _211
REMARK   86  A    between atoms: _211  and  _212
REMARK   87  A    between atoms: _214  and  _216
REMARK   88  A    between atoms: _216  and  _217
REMARK   89  A    between atoms: _216  and  _219
REMARK   90  A    between atoms: _219  and  _220
REMARK   91  A    between atoms: _220  and  _221
REMARK   92  A    between atoms: _226  and  _228
REMARK   93  A    between atoms: _228  and  _229
REMARK   94  A    between atoms: _228  and  _231
REMARK   95  A    between atoms: _231  and  _232
REMARK   96  A    between atoms: _238  and  _240
REMARK   97  A    between atoms: _240  and  _241
REMARK   98  A    between atoms: _240  and  _243
REMARK   99  A    between atoms: _243  and  _244
REMARK  100  A    between atoms: _247  and  _249
REMARK  101  A    between atoms: _249  and  _250
REMARK  102  A    between atoms: _249  and  _252
REMARK  103  A    between atoms: _252  and  _253
REMARK  104  A    between atoms: _256  and  _258
REMARK  105  A    between atoms: _258  and  _259
REMARK  106  A    between atoms: _262  and  _264
REMARK  107  A    between atoms: _264  and  _265
REMARK  108  A    between atoms: _264  and  _267
REMARK  109  A    between atoms: _267  and  _268
REMARK  110  A    between atoms: _268  and  _269
REMARK  111  A    between atoms: _271  and  _273
REMARK  112  A    between atoms: _273  and  _274
REMARK  113  A    between atoms: _273  and  _276
REMARK  114  A    between atoms: _276  and  _277
REMARK  115  A    between atoms: _280  and  _282
REMARK  116  A    between atoms: _282  and  _283
REMARK  117  A    between atoms: _282  and  _285
REMARK  118  A    between atoms: _288  and  _290
REMARK  119  A    between atoms: _290  and  _291
REMARK  120  A    between atoms: _290  and  _293
REMARK  121  A    between atoms: _293  and  _294
REMARK  122  A    between atoms: _296  and  _298
REMARK  123  A    between atoms: _298  and  _299
REMARK  124  A    between atoms: _298  and  _301
REMARK  125  A    between atoms: _301  and  _302
REMARK  126  A    between atoms: _302  and  _303
REMARK  127  A    between atoms: _303  and  _304
REMARK  128  A    between atoms: _304  and  _305
REMARK  129  A    between atoms: _310  and  _311
REMARK  130  A    between atoms: _316  and  _318
REMARK  131  A    between atoms: _318  and  _319
REMARK  132  A    between atoms: _318  and  _321
REMARK  133  A    between atoms: _321  and  _322
REMARK  134  A    between atoms: _327  and  _328
REMARK  135  A    between atoms: _330  and  _332
REMARK  136  A    between atoms: _332  and  _333
REMARK  137  A    between atoms: _332  and  _335
REMARK  138  A    between atoms: _335  and  _336
REMARK  139  A    between atoms: _339  and  _341
REMARK  140  A    between atoms: _341  and  _342
REMARK  141  A    between atoms: _341  and  _344
REMARK  142  A    between atoms: _344  and  _345
REMARK  143  A    between atoms: _348  and  _350
REMARK  144  A    between atoms: _350  and  _351
REMARK  145  A    between atoms: _350  and  _353
REMARK  146  A    between atoms: _353  and  _354
REMARK  147  A    between atoms: _357  and  _359
REMARK  148  A    between atoms: _359  and  _360
REMARK  149  A    between atoms: _359  and  _362
REMARK  150  A    between atoms: _362  and  _363
REMARK  151  A    between atoms: _366  and  _368
REMARK  152  A    between atoms: _368  and  _369
REMARK  153  A    between atoms: _368  and  _371
REMARK  154  A    between atoms: _371  and  _372
REMARK  155  A    between atoms: _374  and  _376
REMARK  156  A    between atoms: _376  and  _377
REMARK  157  A    between atoms: _376  and  _379
REMARK  158  A    between atoms: _379  and  _380
REMARK  159  A    between atoms: _385  and  _386
REMARK  160  A    between atoms: _388  and  _390
REMARK  161  A    between atoms: _390  and  _391
REMARK  162  A    between atoms: _390  and  _393
REMARK  163  A    between atoms: _393  and  _394
REMARK  164  A    between atoms: _397  and  _399
REMARK  165  A    between atoms: _399  and  _400
REMARK  166  A    between atoms: _399  and  _402
REMARK  167  A    between atoms: _402  and  _403
REMARK  168  A    between atoms: _408  and  _410
REMARK  169  A    between atoms: _410  and  _411
REMARK  170  A    between atoms: _410  and  _413
REMARK  171  A    between atoms: _413  and  _414
REMARK  172  A    between atoms: _418  and  _419
REMARK  173  A    between atoms: _424  and  _426
REMARK  174  A    between atoms: _426  and  _427
REMARK  175  A    between atoms: _426  and  _429
REMARK  176  A    between atoms: _429  and  _430
REMARK  177  A    between atoms: _433  and  _435
REMARK  178  A    between atoms: _435  and  _436
REMARK  179  A    between atoms: _439  and  _441
REMARK  180  A    between atoms: _441  and  _442
REMARK  181  A    between atoms: _441  and  _444
REMARK  182  A    between atoms: _444  and  _445
REMARK  183  A    between atoms: _445  and  _446
REMARK  184  A    between atoms: _448  and  _450
REMARK  185  A    between atoms: _450  and  _451
REMARK  186  A    between atoms: _450  and  _453
REMARK  187  A    between atoms: _453  and  _454
REMARK  188  A    between atoms: _459  and  _461
REMARK  189  A    between atoms: _461  and  _462
REMARK  190  A    between atoms: _461  and  _464
REMARK  191  A    between atoms: _464  and  _465
REMARK  192  A    between atoms: _475  and  _477
REMARK  193  A    between atoms: _477  and  _478
REMARK  194  A    between atoms: _477  and  _480
REMARK  195  A    between atoms: _483  and  _485
REMARK  196  A    between atoms: _485  and  _486
REMARK  197  A    between atoms: _485  and  _488
REMARK  198  A    between atoms: _488  and  _489
REMARK  199  A    between atoms: _489  and  _490
REMARK  200  A    between atoms: _490  and  _491
REMARK  201  A    between atoms: _491  and  _492
REMARK  202  A    between atoms: _496  and  _498
REMARK  203  A    between atoms: _498  and  _499
REMARK  204  A    between atoms: _498  and  _501
REMARK  205  A    between atoms: _501  and  _502
REMARK  206  A    between atoms: _502  and  _503
REMARK  207  A    between atoms: _506  and  _508
REMARK  208  A    between atoms: _508  and  _509
REMARK  209  A    between atoms: _508  and  _511
REMARK  210  A    between atoms: _511  and  _512
REMARK  211  A    between atoms: _515  and  _517
REMARK  212  A    between atoms: _517  and  _518
REMARK  213  A    between atoms: _517  and  _520
REMARK  214  A    between atoms: _520  and  _521
REMARK  215  A    between atoms: _521  and  _522
REMARK  216  A    between atoms: _522  and  _523
REMARK  217  A    between atoms: _532  and  _534
REMARK  218  A    between atoms: _534  and  _535
REMARK  219  A    between atoms: _534  and  _537
REMARK  220  A    between atoms: _537  and  _538
REMARK  221  A    between atoms: _543  and  _545
REMARK  222  A    between atoms: _545  and  _546
REMARK  223  A    between atoms: _545  and  _548
REMARK  224  A    between atoms: _548  and  _549
REMARK  225  A    between atoms: _552  and  _554
REMARK  226  A    between atoms: _554  and  _555
REMARK  227  A    between atoms: _554  and  _557
REMARK  228  A    between atoms: _557  and  _558
REMARK  229  A    between atoms: _563  and  _565
REMARK  230  A    between atoms: _565  and  _566
REMARK  231  A    between atoms: _565  and  _568
REMARK  232  A    between atoms: _568  and  _569
REMARK  233  A    between atoms: _569  and  _570
REMARK  234  A    between atoms: _570  and  _571
REMARK  235  A    between atoms: _580  and  _582
REMARK  236  A    between atoms: _582  and  _583
REMARK  237  A    between atoms: _582  and  _585
REMARK  238  A    between atoms: _585  and  _586
REMARK  239  A    between atoms: _586  and  _587
REMARK  240  A    between atoms: _589  and  _591
REMARK  241  A    between atoms: _591  and  _592
REMARK  242  A    between atoms: _591  and  _594
REMARK  243  A    between atoms: _594  and  _595
REMARK  244  A    between atoms: _595  and  _596
REMARK  245  A    between atoms: _598  and  _600
REMARK  246  A    between atoms: _600  and  _601
REMARK  247  A    between atoms: _600  and  _603
REMARK  248  A    between atoms: _603  and  _604
REMARK  249  A    between atoms: _604  and  _605
REMARK  250  A    between atoms: _605  and  _606
REMARK  251  A    between atoms: _606  and  _607
REMARK  252  A    between atoms: _611  and  _613
REMARK  253  A    between atoms: _613  and  _614
REMARK  254  A    between atoms: _613  and  _616
REMARK  255  A    between atoms: _616  and  _617
REMARK                            x       y       z     vdW  Elec       q    Type
REMARK                         _______ _______ _______ _____ _____    ______ ____
ROOT
ATOM      1  O   HOH     1      60.953   5.148  27.583  0.00  0.00    +0.000 OA
ENDROOT
TORSDOF 0
REMARK  Name = ../refined-set-2016/1x8t/1x8t_pocket.pdb
REMARK  255 active torsions:
REMARK  status: ('A' for Active; 'I' for Inactive)
REMARK    1  A    between atoms: _1  and  _3
REMARK    2  A    between atoms: _3  and  _4
REMARK    3  A    between atoms: _3  and  _6
REMARK    4  A    between atoms: _6  and  _7
REMARK    5  A    between atoms: _9  and  _11
REMARK    6  A    between atoms: _11  and  _12
REMARK    7  A    between atoms: _11  and  _14
REMARK    8  A    between atoms: _14  and  _15
REMARK    9  A    between atoms: _15  and  _16
REMARK   10  A    between atoms: _16  and  _17
REMARK   11  A    between atoms: _17  and  _18
REMARK   12  A    between atoms: _22  and  _24
REMARK   13  A    between atoms: _24  and  _25
REMARK   14  A    between atoms: _24  and  _27
REMARK   15  A    between atoms: _27  and  _28
REMARK   16  A    between atoms: _30  and  _32
REMARK   17  A    between atoms: _32  and  _33
REMARK   18  A    between atoms: _32  and  _35
REMARK   19  A    between atoms: _38  and  _40
REMARK   20  A    between atoms: _40  and  _41
REMARK   21  A    between atoms: _40  and  _43
REMARK   22  A    between atoms: _43  and  _44
REMARK   23  A    between atoms: _46  and  _48
REMARK   24  A    between atoms: _48  and  _49
REMARK   25  A    between atoms: _48  and  _51
REMARK   26  A    between atoms: _51  and  _52
REMARK   27  A    between atoms: _57  and  _59
REMARK   28  A    between atoms: _59  and  _60
REMARK   29  A    between atoms: _59  and  _62
REMARK   30  A    between atoms: _62  and  _63
REMARK   31  A    between atoms: _63  and  _64
REMARK   32  A    between atoms: _64  and  _65
REMARK   33  A    between atoms: _74  and  _76
REMARK   34  A    between atoms: _76  and  _77
REMARK   35  A    between atoms: _76  and  _79
REMARK   36  A    between atoms: _79  and  _80
REMARK   37  A    between atoms: _83  and  _85
REMARK   38  A    between atoms: _85  and  _86
REMARK   39  A    between atoms: _85  and  _88
REMARK   40  A    between atoms: _88  and  _89
REMARK   41  A    between atoms: _94  and  _96
REMARK   42  A    between atoms: _96  and  _97
REMARK   43  A    between atoms: _100  and  _102
REMARK   44  A    between atoms: _102  and  _103
REMARK   45  A    between atoms: _105  and  _107
REMARK   46  A    between atoms: _107  and  _108
REMARK   47  A    between atoms: _107  and  _110
REMARK   48  A    between atoms: _110  and  _111
REMARK   49  A    between atoms: _114  and  _116
REMARK   50  A    between atoms: _116  and  _117
REMARK   51  A    between atoms: _120  and  _122
REMARK   52  A    between atoms: _122  and  _123
REMARK   53  A    between atoms: _122  and  _125
REMARK   54  A    between atoms: _125  and  _126
REMARK   55  A    between atoms: _126  and  _127
REMARK   56  A    between atoms: _129  and  _131
REMARK   57  A    between atoms: _131  and  _132
REMARK   58  A    between atoms: _131  and  _134
REMARK   59  A    between atoms: _134  and  _135
REMARK   60  A    between atoms: _135  and  _136
REMARK   61  A    between atoms: _136  and  _137
REMARK   62  A    between atoms: _147  and  _148
REMARK   63  A    between atoms: _153  and  _155
REMARK   64  A    between atoms: _155  and  _156
REMARK   65  A    between atoms: _155  and  _158
REMARK   66  A    between atoms: _158  and  _159
REMARK   67  A    between atoms: _159  and  _160
REMARK   68  A    between atoms: _160  and  _161
REMARK   69  A    between atoms: _171  and  _172
REMARK   70  A    between atoms: _177  and  _179
REMARK   71  A    between atoms: _179  and  _180
REMARK   72  A    between atoms: _182  and  _184
REMARK   73  A    between atoms: _184  and  _185
REMARK   74  A    between atoms: _184  and  _187
REMARK   75  A    between atoms: _187  and  _188
REMARK   76  A    between atoms: _190  and  _192
REMARK   77  A    between atoms: _192  and  _193
REMARK   78  A    between atoms: _192  and  _195
REMARK   79  A    between atoms: _198  and  _200
REMARK   80  A    between atoms: _200  and  _201
REMARK   81  A    between atoms: _200  and  _203
REMARK   82  A    between atoms: _203  and  _204
REMARK   83  A    between atoms: _206  and  _208
REMARK   84  A    between atoms: _208  and  _209
REMARK   85  A    between atoms: _208  and  _211
REMARK   86  A    between atoms: _211  and  _212
REMARK   87  A    between atoms: _214  and  _216
REMARK   88  A    between atoms: _216  and  _217
REMARK   89  A    between atoms: _216  and  _219
REMARK   90  A    between atoms: _219  and  _220
REMARK   91  A    between atoms: _220  and  _221
REMARK   92  A    between atoms: _226  and  _228
REMARK   93  A    between atoms: _228  and  _229
REMARK   94  A    between atoms: _228  and  _231
REMARK   95  A    between atoms: _231  and  _232
REMARK   96  A    between atoms: _238  and  _240
REMARK   97  A    between atoms: _240  and  _241
REMARK   98  A    between atoms: _240  and  _243
REMARK   99  A    between atoms: _243  and  _244
REMARK  100  A    between atoms: _247  and  _249
REMARK  101  A    between atoms: _249  and  _250
REMARK  102  A    between atoms: _249  and  _252
REMARK  103  A    between atoms: _252  and  _253
REMARK  104  A    between atoms: _256  and  _258
REMARK  105  A    between atoms: _258  and  _259
REMARK  106  A    between atoms: _262  and  _264
REMARK  107  A    between atoms: _264  and  _265
REMARK  108  A    between atoms: _264  and  _267
REMARK  109  A    between atoms: _267  and  _268
REMARK  110  A    between atoms: _268  and  _269
REMARK  111  A    between atoms: _271  and  _273
REMARK  112  A    between atoms: _273  and  _274
REMARK  113  A    between atoms: _273  and  _276
REMARK  114  A    between atoms: _276  and  _277
REMARK  115  A    between atoms: _280  and  _282
REMARK  116  A    between atoms: _282  and  _283
REMARK  117  A    between atoms: _282  and  _285
REMARK  118  A    between atoms: _288  and  _290
REMARK  119  A    between atoms: _290  and  _291
REMARK  120  A    between atoms: _290  and  _293
REMARK  121  A    between atoms: _293  and  _294
REMARK  122  A    between atoms: _296  and  _298
REMARK  123  A    between atoms: _298  and  _299
REMARK  124  A    between atoms: _298  and  _301
REMARK  125  A    between atoms: _301  and  _302
REMARK  126  A    between atoms: _302  and  _303
REMARK  127  A    between atoms: _303  and  _304
REMARK  128  A    between atoms: _304  and  _305
REMARK  129  A    between atoms: _310  and  _311
REMARK  130  A    between atoms: _316  and  _318
REMARK  131  A    between atoms: _318  and  _319
REMARK  132  A    between atoms: _318  and  _321
REMARK  133  A    between atoms: _321  and  _322
REMARK  134  A    between atoms: _327  and  _328
REMARK  135  A    between atoms: _330  and  _332
REMARK  136  A    between atoms: _332  and  _333
REMARK  137  A    between atoms: _332  and  _335
REMARK  138  A    between atoms: _335  and  _336
REMARK  139  A    between atoms: _339  and  _341
REMARK  140  A    between atoms: _341  and  _342
REMARK  141  A    between atoms: _341  and  _344
REMARK  142  A    between atoms: _344  and  _345
REMARK  143  A    between atoms: _348  and  _350
REMARK  144  A    between atoms: _350  and  _351
REMARK  145  A    between atoms: _350  and  _353
REMARK  146  A    between atoms: _353  and  _354
REMARK  147  A    between atoms: _357  and  _359
REMARK  148  A    between atoms: _359  and  _360
REMARK  149  A    between atoms: _359  and  _362
REMARK  150  A    between atoms: _362  and  _363
REMARK  151  A    between atoms: _366  and  _368
REMARK  152  A    between atoms: _368  and  _369
REMARK  153  A    between atoms: _368  and  _371
REMARK  154  A    between atoms: _371  and  _372
REMARK  155  A    between atoms: _374  and  _376
REMARK  156  A    between atoms: _376  and  _377
REMARK  157  A    between atoms: _376  and  _379
REMARK  158  A    between atoms: _379  and  _380
REMARK  159  A    between atoms: _385  and  _386
REMARK  160  A    between atoms: _388  and  _390
REMARK  161  A    between atoms: _390  and  _391
REMARK  162  A    between atoms: _390  and  _393
REMARK  163  A    between atoms: _393  and  _394
REMARK  164  A    between atoms: _397  and  _399
REMARK  165  A    between atoms: _399  and  _400
REMARK  166  A    between atoms: _399  and  _402
REMARK  167  A    between atoms: _402  and  _403
REMARK  168  A    between atoms: _408  and  _410
REMARK  169  A    between atoms: _410  and  _411
REMARK  170  A    between atoms: _410  and  _413
REMARK  171  A    between atoms: _413  and  _414
REMARK  172  A    between atoms: _418  and  _419
REMARK  173  A    between atoms: _424  and  _426
REMARK  174  A    between atoms: _426  and  _427
REMARK  175  A    between atoms: _426  and  _429
REMARK  176  A    between atoms: _429  and  _430
REMARK  177  A    between atoms: _433  and  _435
REMARK  178  A    between atoms: _435  and  _436
REMARK  179  A    between atoms: _439  and  _441
REMARK  180  A    between atoms: _441  and  _442
REMARK  181  A    between atoms: _441  and  _444
REMARK  182  A    between atoms: _444  and  _445
REMARK  183  A    between atoms: _445  and  _446
REMARK  184  A    between atoms: _448  and  _450
REMARK  185  A    between atoms: _450  and  _451
REMARK  186  A    between atoms: _450  and  _453
REMARK  187  A    between atoms: _453  and  _454
REMARK  188  A    between atoms: _459  and  _461
REMARK  189  A    between atoms: _461  and  _462
REMARK  190  A    between atoms: _461  and  _464
REMARK  191  A    between atoms: _464  and  _465
REMARK  192  A    between atoms: _475  and  _477
REMARK  193  A    between atoms: _477  and  _478
REMARK  194  A    between atoms: _477  and  _480
REMARK  195  A    between atoms: _483  and  _485
REMARK  196  A    between atoms: _485  and  _486
REMARK  197  A    between atoms: _485  and  _488
REMARK  198  A    between atoms: _488  and  _489
REMARK  199  A    between atoms: _489  and  _490
REMARK  200  A    between atoms: _490  and  _491
REMARK  201  A    between atoms: _491  and  _492
REMARK  202  A    between atoms: _496  and  _498
REMARK  203  A    between atoms: _498  and  _499
REMARK  204  A    between atoms: _498  and  _501
REMARK  205  A    between atoms: _501  and  _502
REMARK  206  A    between atoms: _502  and  _503
REMARK  207  A    between atoms: _506  and  _508
REMARK  208  A    between atoms: _508  and  _509
REMARK  209  A    between atoms: _508  and  _511
REMARK  210  A    between atoms: _511  and  _512
REMARK  211  A    between atoms: _515  and  _517
REMARK  212  A    between atoms: _517  and  _518
REMARK  213  A    between atoms: _517  and  _520
REMARK  214  A    between atoms: _520  and  _521
REMARK  215  A    between atoms: _521  and  _522
REMARK  216  A    between atoms: _522  and  _523
REMARK  217  A    between atoms: _532  and  _534
REMARK  218  A    between atoms: _534  and  _535
REMARK  219  A    between atoms: _534  and  _537
REMARK  220  A    between atoms: _537  and  _538
REMARK  221  A    between atoms: _543  and  _545
REMARK  222  A    between atoms: _545  and  _546
REMARK  223  A    between atoms: _545  and  _548
REMARK  224  A    between atoms: _548  and  _549
REMARK  225  A    between atoms: _552  and  _554
REMARK  226  A    between atoms: _554  and  _555
REMARK  227  A    between atoms: _554  and  _557
REMARK  228  A    between atoms: _557  and  _558
REMARK  229  A    between atoms: _563  and  _565
REMARK  230  A    between atoms: _565  and  _566
REMARK  231  A    between atoms: _565  and  _568
REMARK  232  A    between atoms: _568  and  _569
REMARK  233  A    between atoms: _569  and  _570
REMARK  234  A    between atoms: _570  and  _571
REMARK  235  A    between atoms: _580  and  _582
REMARK  236  A    between atoms: _582  and  _583
REMARK  237  A    between atoms: _582  and  _585
REMARK  238  A    between atoms: _585  and  _586
REMARK  239  A    between atoms: _586  and  _587
REMARK  240  A    between atoms: _589  and  _591
REMARK  241  A    between atoms: _591  and  _592
REMARK  242  A    between atoms: _591  and  _594
REMARK  243  A    between atoms: _594  and  _595
REMARK  244  A    between atoms: _595  and  _596
REMARK  245  A    between atoms: _598  and  _600
REMARK  246  A    between atoms: _600  and  _601
REMARK  247  A    between atoms: _600  and  _603
REMARK  248  A    between atoms: _603  and  _604
REMARK  249  A    between atoms: _604  and  _605
REMARK  250  A    between atoms: _605  and  _606
REMARK  251  A    between atoms: _606  and  _607
REMARK  252  A    between atoms: _611  and  _613
REMARK  253  A    between atoms: _613  and  _614
REMARK  254  A    between atoms: _613  and  _616
REMARK  255  A    between atoms: _616  and  _617
REMARK                            x       y       z     vdW  Elec       q    Type
REMARK                         _______ _______ _______ _____ _____    ______ ____
ROOT
ATOM      1  O   HOH     1      56.004   3.594  25.015  0.00  0.00    +0.000 OA
ENDROOT
TORSDOF 0
REMARK  Name = ../refined-set-2016/1x8t/1x8t_pocket.pdb
REMARK  255 active torsions:
REMARK  status: ('A' for Active; 'I' for Inactive)
REMARK    1  A    between atoms: _1  and  _3
REMARK    2  A    between atoms: _3  and  _4
REMARK    3  A    between atoms: _3  and  _6
REMARK    4  A    between atoms: _6  and  _7
REMARK    5  A    between atoms: _9  and  _11
REMARK    6  A    between atoms: _11  and  _12
REMARK    7  A    between atoms: _11  and  _14
REMARK    8  A    between atoms: _14  and  _15
REMARK    9  A    between atoms: _15  and  _16
REMARK   10  A    between atoms: _16  and  _17
REMARK   11  A    between atoms: _17  and  _18
REMARK   12  A    between atoms: _22  and  _24
REMARK   13  A    between atoms: _24  and  _25
REMARK   14  A    between atoms: _24  and  _27
REMARK   15  A    between atoms: _27  and  _28
REMARK   16  A    between atoms: _30  and  _32
REMARK   17  A    between atoms: _32  and  _33
REMARK   18  A    between atoms: _32  and  _35
REMARK   19  A    between atoms: _38  and  _40
REMARK   20  A    between atoms: _40  and  _41
REMARK   21  A    between atoms: _40  and  _43
REMARK   22  A    between atoms: _43  and  _44
REMARK   23  A    between atoms: _46  and  _48
REMARK   24  A    between atoms: _48  and  _49
REMARK   25  A    between atoms: _48  and  _51
REMARK   26  A    between atoms: _51  and  _52
REMARK   27  A    between atoms: _57  and  _59
REMARK   28  A    between atoms: _59  and  _60
REMARK   29  A    between atoms: _59  and  _62
REMARK   30  A    between atoms: _62  and  _63
REMARK   31  A    between atoms: _63  and  _64
REMARK   32  A    between atoms: _64  and  _65
REMARK   33  A    between atoms: _74  and  _76
REMARK   34  A    between atoms: _76  and  _77
REMARK   35  A    between atoms: _76  and  _79
REMARK   36  A    between atoms: _79  and  _80
REMARK   37  A    between atoms: _83  and  _85
REMARK   38  A    between atoms: _85  and  _86
REMARK   39  A    between atoms: _85  and  _88
REMARK   40  A    between atoms: _88  and  _89
REMARK   41  A    between atoms: _94  and  _96
REMARK   42  A    between atoms: _96  and  _97
REMARK   43  A    between atoms: _100  and  _102
REMARK   44  A    between atoms: _102  and  _103
REMARK   45  A    between atoms: _105  and  _107
REMARK   46  A    between atoms: _107  and  _108
REMARK   47  A    between atoms: _107  and  _110
REMARK   48  A    between atoms: _110  and  _111
REMARK   49  A    between atoms: _114  and  _116
REMARK   50  A    between atoms: _116  and  _117
REMARK   51  A    between atoms: _120  and  _122
REMARK   52  A    between atoms: _122  and  _123
REMARK   53  A    between atoms: _122  and  _125
REMARK   54  A    between atoms: _125  and  _126
REMARK   55  A    between atoms: _126  and  _127
REMARK   56  A    between atoms: _129  and  _131
REMARK   57  A    between atoms: _131  and  _132
REMARK   58  A    between atoms: _131  and  _134
REMARK   59  A    between atoms: _134  and  _135
REMARK   60  A    between atoms: _135  and  _136
REMARK   61  A    between atoms: _136  and  _137
REMARK   62  A    between atoms: _147  and  _148
REMARK   63  A    between atoms: _153  and  _155
REMARK   64  A    between atoms: _155  and  _156
REMARK   65  A    between atoms: _155  and  _158
REMARK   66  A    between atoms: _158  and  _159
REMARK   67  A    between atoms: _159  and  _160
REMARK   68  A    between atoms: _160  and  _161
REMARK   69  A    between atoms: _171  and  _172
REMARK   70  A    between atoms: _177  and  _179
REMARK   71  A    between atoms: _179  and  _180
REMARK   72  A    between atoms: _182  and  _184
REMARK   73  A    between atoms: _184  and  _185
REMARK   74  A    between atoms: _184  and  _187
REMARK   75  A    between atoms: _187  and  _188
REMARK   76  A    between atoms: _190  and  _192
REMARK   77  A    between atoms: _192  and  _193
REMARK   78  A    between atoms: _192  and  _195
REMARK   79  A    between atoms: _198  and  _200
REMARK   80  A    between atoms: _200  and  _201
REMARK   81  A    between atoms: _200  and  _203
REMARK   82  A    between atoms: _203  and  _204
REMARK   83  A    between atoms: _206  and  _208
REMARK   84  A    between atoms: _208  and  _209
REMARK   85  A    between atoms: _208  and  _211
REMARK   86  A    between atoms: _211  and  _212
REMARK   87  A    between atoms: _214  and  _216
REMARK   88  A    between atoms: _216  and  _217
REMARK   89  A    between atoms: _216  and  _219
REMARK   90  A    between atoms: _219  and  _220
REMARK   91  A    between atoms: _220  and  _221
REMARK   92  A    between atoms: _226  and  _228
REMARK   93  A    between atoms: _228  and  _229
REMARK   94  A    between atoms: _228  and  _231
REMARK   95  A    between atoms: _231  and  _232
REMARK   96  A    between atoms: _238  and  _240
REMARK   97  A    between atoms: _240  and  _241
REMARK   98  A    between atoms: _240  and  _243
REMARK   99  A    between atoms: _243  and  _244
REMARK  100  A    between atoms: _247  and  _249
REMARK  101  A    between atoms: _249  and  _250
REMARK  102  A    between atoms: _249  and  _252
REMARK  103  A    between atoms: _252  and  _253
REMARK  104  A    between atoms: _256  and  _258
REMARK  105  A    between atoms: _258  and  _259
REMARK  106  A    between atoms: _262  and  _264
REMARK  107  A    between atoms: _264  and  _265
REMARK  108  A    between atoms: _264  and  _267
REMARK  109  A    between atoms: _267  and  _268
REMARK  110  A    between atoms: _268  and  _269
REMARK  111  A    between atoms: _271  and  _273
REMARK  112  A    between atoms: _273  and  _274
REMARK  113  A    between atoms: _273  and  _276
REMARK  114  A    between atoms: _276  and  _277
REMARK  115  A    between atoms: _280  and  _282
REMARK  116  A    between atoms: _282  and  _283
REMARK  117  A    between atoms: _282  and  _285
REMARK  118  A    between atoms: _288  and  _290
REMARK  119  A    between atoms: _290  and  _291
REMARK  120  A    between atoms: _290  and  _293
REMARK  121  A    between atoms: _293  and  _294
REMARK  122  A    between atoms: _296  and  _298
REMARK  123  A    between atoms: _298  and  _299
REMARK  124  A    between atoms: _298  and  _301
REMARK  125  A    between atoms: _301  and  _302
REMARK  126  A    between atoms: _302  and  _303
REMARK  127  A    between atoms: _303  and  _304
REMARK  128  A    between atoms: _304  and  _305
REMARK  129  A    between atoms: _310  and  _311
REMARK  130  A    between atoms: _316  and  _318
REMARK  131  A    between atoms: _318  and  _319
REMARK  132  A    between atoms: _318  and  _321
REMARK  133  A    between atoms: _321  and  _322
REMARK  134  A    between atoms: _327  and  _328
REMARK  135  A    between atoms: _330  and  _332
REMARK  136  A    between atoms: _332  and  _333
REMARK  137  A    between atoms: _332  and  _335
REMARK  138  A    between atoms: _335  and  _336
REMARK  139  A    between atoms: _339  and  _341
REMARK  140  A    between atoms: _341  and  _342
REMARK  141  A    between atoms: _341  and  _344
REMARK  142  A    between atoms: _344  and  _345
REMARK  143  A    between atoms: _348  and  _350
REMARK  144  A    between atoms: _350  and  _351
REMARK  145  A    between atoms: _350  and  _353
REMARK  146  A    between atoms: _353  and  _354
REMARK  147  A    between atoms: _357  and  _359
REMARK  148  A    between atoms: _359  and  _360
REMARK  149  A    between atoms: _359  and  _362
REMARK  150  A    between atoms: _362  and  _363
REMARK  151  A    between atoms: _366  and  _368
REMARK  152  A    between atoms: _368  and  _369
REMARK  153  A    between atoms: _368  and  _371
REMARK  154  A    between atoms: _371  and  _372
REMARK  155  A    between atoms: _374  and  _376
REMARK  156  A    between atoms: _376  and  _377
REMARK  157  A    between atoms: _376  and  _379
REMARK  158  A    between atoms: _379  and  _380
REMARK  159  A    between atoms: _385  and  _386
REMARK  160  A    between atoms: _388  and  _390
REMARK  161  A    between atoms: _390  and  _391
REMARK  162  A    between atoms: _390  and  _393
REMARK  163  A    between atoms: _393  and  _394
REMARK  164  A    between atoms: _397  and  _399
REMARK  165  A    between atoms: _399  and  _400
REMARK  166  A    between atoms: _399  and  _402
REMARK  167  A    between atoms: _402  and  _403
REMARK  168  A    between atoms: _408  and  _410
REMARK  169  A    between atoms: _410  and  _411
REMARK  170  A    between atoms: _410  and  _413
REMARK  171  A    between atoms: _413  and  _414
REMARK  172  A    between atoms: _418  and  _419
REMARK  173  A    between atoms: _424  and  _426
REMARK  174  A    between atoms: _426  and  _427
REMARK  175  A    between atoms: _426  and  _429
REMARK  176  A    between atoms: _429  and  _430
REMARK  177  A    between atoms: _433  and  _435
REMARK  178  A    between atoms: _435  and  _436
REMARK  179  A    between atoms: _439  and  _441
REMARK  180  A    between atoms: _441  and  _442
REMARK  181  A    between atoms: _441  and  _444
REMARK  182  A    between atoms: _444  and  _445
REMARK  183  A    between atoms: _445  and  _446
REMARK  184  A    between atoms: _448  and  _450
REMARK  185  A    between atoms: _450  and  _451
REMARK  186  A    between atoms: _450  and  _453
REMARK  187  A    between atoms: _453  and  _454
REMARK  188  A    between atoms: _459  and  _461
REMARK  189  A    between atoms: _461  and  _462
REMARK  190  A    between atoms: _461  and  _464
REMARK  191  A    between atoms: _464  and  _465
REMARK  192  A    between atoms: _475  and  _477
REMARK  193  A    between atoms: _477  and  _478
REMARK  194  A    between atoms: _477  and  _480
REMARK  195  A    between atoms: _483  and  _485
REMARK  196  A    between atoms: _485  and  _486
REMARK  197  A    between atoms: _485  and  _488
REMARK  198  A    between atoms: _488  and  _489
REMARK  199  A    between atoms: _489  and  _490
REMARK  200  A    between atoms: _490  and  _491
REMARK  201  A    between atoms: _491  and  _492
REMARK  202  A    between atoms: _496  and  _498
REMARK  203  A    between atoms: _498  and  _499
REMARK  204  A    between atoms: _498  and  _501
REMARK  205  A    between atoms: _501  and  _502
REMARK  206  A    between atoms: _502  and  _503
REMARK  207  A    between atoms: _506  and  _508
REMARK  208  A    between atoms: _508  and  _509
REMARK  209  A    between atoms: _508  and  _511
REMARK  210  A    between atoms: _511  and  _512
REMARK  211  A    between atoms: _515  and  _517
REMARK  212  A    between atoms: _517  and  _518
REMARK  213  A    between atoms: _517  and  _520
REMARK  214  A    between atoms: _520  and  _521
REMARK  215  A    between atoms: _521  and  _522
REMARK  216  A    between atoms: _522  and  _523
REMARK  217  A    between atoms: _532  and  _534
REMARK  218  A    between atoms: _534  and  _535
REMARK  219  A    between atoms: _534  and  _537
REMARK  220  A    between atoms: _537  and  _538
REMARK  221  A    between atoms: _543  and  _545
REMARK  222  A    between atoms: _545  and  _546
REMARK  223  A    between atoms: _545  and  _548
REMARK  224  A    between atoms: _548  and  _549
REMARK  225  A    between atoms: _552  and  _554
REMARK  226  A    between atoms: _554  and  _555
REMARK  227  A    between atoms: _554  and  _557
REMARK  228  A    between atoms: _557  and  _558
REMARK  229  A    between atoms: _563  and  _565
REMARK  230  A    between atoms: _565  and  _566
REMARK  231  A    between atoms: _565  and  _568
REMARK  232  A    between atoms: _568  and  _569
REMARK  233  A    between atoms: _569  and  _570
REMARK  234  A    between atoms: _570  and  _571
REMARK  235  A    between atoms: _580  and  _582
REMARK  236  A    between atoms: _582  and  _583
REMARK  237  A    between atoms: _582  and  _585
REMARK  238  A    between atoms: _585  and  _586
REMARK  239  A    between atoms: _586  and  _587
REMARK  240  A    between atoms: _589  and  _591
REMARK  241  A    between atoms: _591  and  _592
REMARK  242  A    between atoms: _591  and  _594
REMARK  243  A    between atoms: _594  and  _595
REMARK  244  A    between atoms: _595  and  _596
REMARK  245  A    between atoms: _598  and  _600
REMARK  246  A    between atoms: _600  and  _601
REMARK  247  A    between atoms: _600  and  _603
REMARK  248  A    between atoms: _603  and  _604
REMARK  249  A    between atoms: _604  and  _605
REMARK  250  A    between atoms: _605  and  _606
REMARK  251  A    between atoms: _606  and  _607
REMARK  252  A    between atoms: _611  and  _613
REMARK  253  A    between atoms: _613  and  _614
REMARK  254  A    between atoms: _613  and  _616
REMARK  255  A    between atoms: _616  and  _617
REMARK                            x       y       z     vdW  Elec       q    Type
REMARK                         _______ _______ _______ _____ _____    ______ ____
ROOT
ATOM      1  O   HOH     1      63.714   6.200  24.034  0.00  0.00    +0.000 OA
ENDROOT
TORSDOF 0
REMARK  Name = ../refined-set-2016/1x8t/1x8t_pocket.pdb
REMARK  255 active torsions:
REMARK  status: ('A' for Active; 'I' for Inactive)
REMARK    1  A    between atoms: _1  and  _3
REMARK    2  A    between atoms: _3  and  _4
REMARK    3  A    between atoms: _3  and  _6
REMARK    4  A    between atoms: _6  and  _7
REMARK    5  A    between atoms: _9  and  _11
REMARK    6  A    between atoms: _11  and  _12
REMARK    7  A    between atoms: _11  and  _14
REMARK    8  A    between atoms: _14  and  _15
REMARK    9  A    between atoms: _15  and  _16
REMARK   10  A    between atoms: _16  and  _17
REMARK   11  A    between atoms: _17  and  _18
REMARK   12  A    between atoms: _22  and  _24
REMARK   13  A    between atoms: _24  and  _25
REMARK   14  A    between atoms: _24  and  _27
REMARK   15  A    between atoms: _27  and  _28
REMARK   16  A    between atoms: _30  and  _32
REMARK   17  A    between atoms: _32  and  _33
REMARK   18  A    between atoms: _32  and  _35
REMARK   19  A    between atoms: _38  and  _40
REMARK   20  A    between atoms: _40  and  _41
REMARK   21  A    between atoms: _40  and  _43
REMARK   22  A    between atoms: _43  and  _44
REMARK   23  A    between atoms: _46  and  _48
REMARK   24  A    between atoms: _48  and  _49
REMARK   25  A    between atoms: _48  and  _51
REMARK   26  A    between atoms: _51  and  _52
REMARK   27  A    between atoms: _57  and  _59
REMARK   28  A    between atoms: _59  and  _60
REMARK   29  A    between atoms: _59  and  _62
REMARK   30  A    between atoms: _62  and  _63
REMARK   31  A    between atoms: _63  and  _64
REMARK   32  A    between atoms: _64  and  _65
REMARK   33  A    between atoms: _74  and  _76
REMARK   34  A    between atoms: _76  and  _77
REMARK   35  A    between atoms: _76  and  _79
REMARK   36  A    between atoms: _79  and  _80
REMARK   37  A    between atoms: _83  and  _85
REMARK   38  A    between atoms: _85  and  _86
REMARK   39  A    between atoms: _85  and  _88
REMARK   40  A    between atoms: _88  and  _89
REMARK   41  A    between atoms: _94  and  _96
REMARK   42  A    between atoms: _96  and  _97
REMARK   43  A    between atoms: _100  and  _102
REMARK   44  A    between atoms: _102  and  _103
REMARK   45  A    between atoms: _105  and  _107
REMARK   46  A    between atoms: _107  and  _108
REMARK   47  A    between atoms: _107  and  _110
REMARK   48  A    between atoms: _110  and  _111
REMARK   49  A    between atoms: _114  and  _116
REMARK   50  A    between atoms: _116  and  _117
REMARK   51  A    between atoms: _120  and  _122
REMARK   52  A    between atoms: _122  and  _123
REMARK   53  A    between atoms: _122  and  _125
REMARK   54  A    between atoms: _125  and  _126
REMARK   55  A    between atoms: _126  and  _127
REMARK   56  A    between atoms: _129  and  _131
REMARK   57  A    between atoms: _131  and  _132
REMARK   58  A    between atoms: _131  and  _134
REMARK   59  A    between atoms: _134  and  _135
REMARK   60  A    between atoms: _135  and  _136
REMARK   61  A    between atoms: _136  and  _137
REMARK   62  A    between atoms: _147  and  _148
REMARK   63  A    between atoms: _153  and  _155
REMARK   64  A    between atoms: _155  and  _156
REMARK   65  A    between atoms: _155  and  _158
REMARK   66  A    between atoms: _158  and  _159
REMARK   67  A    between atoms: _159  and  _160
REMARK   68  A    between atoms: _160  and  _161
REMARK   69  A    between atoms: _171  and  _172
REMARK   70  A    between atoms: _177  and  _179
REMARK   71  A    between atoms: _179  and  _180
REMARK   72  A    between atoms: _182  and  _184
REMARK   73  A    between atoms: _184  and  _185
REMARK   74  A    between atoms: _184  and  _187
REMARK   75  A    between atoms: _187  and  _188
REMARK   76  A    between atoms: _190  and  _192
REMARK   77  A    between atoms: _192  and  _193
REMARK   78  A    between atoms: _192  and  _195
REMARK   79  A    between atoms: _198  and  _200
REMARK   80  A    between atoms: _200  and  _201
REMARK   81  A    between atoms: _200  and  _203
REMARK   82  A    between atoms: _203  and  _204
REMARK   83  A    between atoms: _206  and  _208
REMARK   84  A    between atoms: _208  and  _209
REMARK   85  A    between atoms: _208  and  _211
REMARK   86  A    between atoms: _211  and  _212
REMARK   87  A    between atoms: _214  and  _216
REMARK   88  A    between atoms: _216  and  _217
REMARK   89  A    between atoms: _216  and  _219
REMARK   90  A    between atoms: _219  and  _220
REMARK   91  A    between atoms: _220  and  _221
REMARK   92  A    between atoms: _226  and  _228
REMARK   93  A    between atoms: _228  and  _229
REMARK   94  A    between atoms: _228  and  _231
REMARK   95  A    between atoms: _231  and  _232
REMARK   96  A    between atoms: _238  and  _240
REMARK   97  A    between atoms: _240  and  _241
REMARK   98  A    between atoms: _240  and  _243
REMARK   99  A    between atoms: _243  and  _244
REMARK  100  A    between atoms: _247  and  _249
REMARK  101  A    between atoms: _249  and  _250
REMARK  102  A    between atoms: _249  and  _252
REMARK  103  A    between atoms: _252  and  _253
REMARK  104  A    between atoms: _256  and  _258
REMARK  105  A    between atoms: _258  and  _259
REMARK  106  A    between atoms: _262  and  _264
REMARK  107  A    between atoms: _264  and  _265
REMARK  108  A    between atoms: _264  and  _267
REMARK  109  A    between atoms: _267  and  _268
REMARK  110  A    between atoms: _268  and  _269
REMARK  111  A    between atoms: _271  and  _273
REMARK  112  A    between atoms: _273  and  _274
REMARK  113  A    between atoms: _273  and  _276
REMARK  114  A    between atoms: _276  and  _277
REMARK  115  A    between atoms: _280  and  _282
REMARK  116  A    between atoms: _282  and  _283
REMARK  117  A    between atoms: _282  and  _285
REMARK  118  A    between atoms: _288  and  _290
REMARK  119  A    between atoms: _290  and  _291
REMARK  120  A    between atoms: _290  and  _293
REMARK  121  A    between atoms: _293  and  _294
REMARK  122  A    between atoms: _296  and  _298
REMARK  123  A    between atoms: _298  and  _299
REMARK  124  A    between atoms: _298  and  _301
REMARK  125  A    between atoms: _301  and  _302
REMARK  126  A    between atoms: _302  and  _303
REMARK  127  A    between atoms: _303  and  _304
REMARK  128  A    between atoms: _304  and  _305
REMARK  129  A    between atoms: _310  and  _311
REMARK  130  A    between atoms: _316  and  _318
REMARK  131  A    between atoms: _318  and  _319
REMARK  132  A    between atoms: _318  and  _321
REMARK  133  A    between atoms: _321  and  _322
REMARK  134  A    between atoms: _327  and  _328
REMARK  135  A    between atoms: _330  and  _332
REMARK  136  A    between atoms: _332  and  _333
REMARK  137  A    between atoms: _332  and  _335
REMARK  138  A    between atoms: _335  and  _336
REMARK  139  A    between atoms: _339  and  _341
REMARK  140  A    between atoms: _341  and  _342
REMARK  141  A    between atoms: _341  and  _344
REMARK  142  A    between atoms: _344  and  _345
REMARK  143  A    between atoms: _348  and  _350
REMARK  144  A    between atoms: _350  and  _351
REMARK  145  A    between atoms: _350  and  _353
REMARK  146  A    between atoms: _353  and  _354
REMARK  147  A    between atoms: _357  and  _359
REMARK  148  A    between atoms: _359  and  _360
REMARK  149  A    between atoms: _359  and  _362
REMARK  150  A    between atoms: _362  and  _363
REMARK  151  A    between atoms: _366  and  _368
REMARK  152  A    between atoms: _368  and  _369
REMARK  153  A    between atoms: _368  and  _371
REMARK  154  A    between atoms: _371  and  _372
REMARK  155  A    between atoms: _374  and  _376
REMARK  156  A    between atoms: _376  and  _377
REMARK  157  A    between atoms: _376  and  _379
REMARK  158  A    between atoms: _379  and  _380
REMARK  159  A    between atoms: _385  and  _386
REMARK  160  A    between atoms: _388  and  _390
REMARK  161  A    between atoms: _390  and  _391
REMARK  162  A    between atoms: _390  and  _393
REMARK  163  A    between atoms: _393  and  _394
REMARK  164  A    between atoms: _397  and  _399
REMARK  165  A    between atoms: _399  and  _400
REMARK  166  A    between atoms: _399  and  _402
REMARK  167  A    between atoms: _402  and  _403
REMARK  168  A    between atoms: _408  and  _410
REMARK  169  A    between atoms: _410  and  _411
REMARK  170  A    between atoms: _410  and  _413
REMARK  171  A    between atoms: _413  and  _414
REMARK  172  A    between atoms: _418  and  _419
REMARK  173  A    between atoms: _424  and  _426
REMARK  174  A    between atoms: _426  and  _427
REMARK  175  A    between atoms: _426  and  _429
REMARK  176  A    between atoms: _429  and  _430
REMARK  177  A    between atoms: _433  and  _435
REMARK  178  A    between atoms: _435  and  _436
REMARK  179  A    between atoms: _439  and  _441
REMARK  180  A    between atoms: _441  and  _442
REMARK  181  A    between atoms: _441  and  _444
REMARK  182  A    between atoms: _444  and  _445
REMARK  183  A    between atoms: _445  and  _446
REMARK  184  A    between atoms: _448  and  _450
REMARK  185  A    between atoms: _450  and  _451
REMARK  186  A    between atoms: _450  and  _453
REMARK  187  A    between atoms: _453  and  _454
REMARK  188  A    between atoms: _459  and  _461
REMARK  189  A    between atoms: _461  and  _462
REMARK  190  A    between atoms: _461  and  _464
REMARK  191  A    between atoms: _464  and  _465
REMARK  192  A    between atoms: _475  and  _477
REMARK  193  A    between atoms: _477  and  _478
REMARK  194  A    between atoms: _477  and  _480
REMARK  195  A    between atoms: _483  and  _485
REMARK  196  A    between atoms: _485  and  _486
REMARK  197  A    between atoms: _485  and  _488
REMARK  198  A    between atoms: _488  and  _489
REMARK  199  A    between atoms: _489  and  _490
REMARK  200  A    between atoms: _490  and  _491
REMARK  201  A    between atoms: _491  and  _492
REMARK  202  A    between atoms: _496  and  _498
REMARK  203  A    between atoms: _498  and  _499
REMARK  204  A    between atoms: _498  and  _501
REMARK  205  A    between atoms: _501  and  _502
REMARK  206  A    between atoms: _502  and  _503
REMARK  207  A    between atoms: _506  and  _508
REMARK  208  A    between atoms: _508  and  _509
REMARK  209  A    between atoms: _508  and  _511
REMARK  210  A    between atoms: _511  and  _512
REMARK  211  A    between atoms: _515  and  _517
REMARK  212  A    between atoms: _517  and  _518
REMARK  213  A    between atoms: _517  and  _520
REMARK  214  A    between atoms: _520  and  _521
REMARK  215  A    between atoms: _521  and  _522
REMARK  216  A    between atoms: _522  and  _523
REMARK  217  A    between atoms: _532  and  _534
REMARK  218  A    between atoms: _534  and  _535
REMARK  219  A    between atoms: _534  and  _537
REMARK  220  A    between atoms: _537  and  _538
REMARK  221  A    between atoms: _543  and  _545
REMARK  222  A    between atoms: _545  and  _546
REMARK  223  A    between atoms: _545  and  _548
REMARK  224  A    between atoms: _548  and  _549
REMARK  225  A    between atoms: _552  and  _554
REMARK  226  A    between atoms: _554  and  _555
REMARK  227  A    between atoms: _554  and  _557
REMARK  228  A    between atoms: _557  and  _558
REMARK  229  A    between atoms: _563  and  _565
REMARK  230  A    between atoms: _565  and  _566
REMARK  231  A    between atoms: _565  and  _568
REMARK  232  A    between atoms: _568  and  _569
REMARK  233  A    between atoms: _569  and  _570
REMARK  234  A    between atoms: _570  and  _571
REMARK  235  A    between atoms: _580  and  _582
REMARK  236  A    between atoms: _582  and  _583
REMARK  237  A    between atoms: _582  and  _585
REMARK  238  A    between atoms: _585  and  _586
REMARK  239  A    between atoms: _586  and  _587
REMARK  240  A    between atoms: _589  and  _591
REMARK  241  A    between atoms: _591  and  _592
REMARK  242  A    between atoms: _591  and  _594
REMARK  243  A    between atoms: _594  and  _595
REMARK  244  A    between atoms: _595  and  _596
REMARK  245  A    between atoms: _598  and  _600
REMARK  246  A    between atoms: _600  and  _601
REMARK  247  A    between atoms: _600  and  _603
REMARK  248  A    between atoms: _603  and  _604
REMARK  249  A    between atoms: _604  and  _605
REMARK  250  A    between atoms: _605  and  _606
REMARK  251  A    between atoms: _606  and  _607
REMARK  252  A    between atoms: _611  and  _613
REMARK  253  A    between atoms: _613  and  _614
REMARK  254  A    between atoms: _613  and  _616
REMARK  255  A    between atoms: _616  and  _617
REMARK                            x       y       z     vdW  Elec       q    Type
REMARK                         _______ _______ _______ _____ _____    ______ ____
ROOT
ATOM      1  O   HOH     1      66.887   2.529  28.146  0.00  0.00    +0.000 OA
ENDROOT
TORSDOF 0
REMARK  Name = ../refined-set-2016/1x8t/1x8t_pocket.pdb
REMARK  255 active torsions:
REMARK  status: ('A' for Active; 'I' for Inactive)
REMARK    1  A    between atoms: _1  and  _3
REMARK    2  A    between atoms: _3  and  _4
REMARK    3  A    between atoms: _3  and  _6
REMARK    4  A    between atoms: _6  and  _7
REMARK    5  A    between atoms: _9  and  _11
REMARK    6  A    between atoms: _11  and  _12
REMARK    7  A    between atoms: _11  and  _14
REMARK    8  A    between atoms: _14  and  _15
REMARK    9  A    between atoms: _15  and  _16
REMARK   10  A    between atoms: _16  and  _17
REMARK   11  A    between atoms: _17  and  _18
REMARK   12  A    between atoms: _22  and  _24
REMARK   13  A    between atoms: _24  and  _25
REMARK   14  A    between atoms: _24  and  _27
REMARK   15  A    between atoms: _27  and  _28
REMARK   16  A    between atoms: _30  and  _32
REMARK   17  A    between atoms: _32  and  _33
REMARK   18  A    between atoms: _32  and  _35
REMARK   19  A    between atoms: _38  and  _40
REMARK   20  A    between atoms: _40  and  _41
REMARK   21  A    between atoms: _40  and  _43
REMARK   22  A    between atoms: _43  and  _44
REMARK   23  A    between atoms: _46  and  _48
REMARK   24  A    between atoms: _48  and  _49
REMARK   25  A    between atoms: _48  and  _51
REMARK   26  A    between atoms: _51  and  _52
REMARK   27  A    between atoms: _57  and  _59
REMARK   28  A    between atoms: _59  and  _60
REMARK   29  A    between atoms: _59  and  _62
REMARK   30  A    between atoms: _62  and  _63
REMARK   31  A    between atoms: _63  and  _64
REMARK   32  A    between atoms: _64  and  _65
REMARK   33  A    between atoms: _74  and  _76
REMARK   34  A    between atoms: _76  and  _77
REMARK   35  A    between atoms: _76  and  _79
REMARK   36  A    between atoms: _79  and  _80
REMARK   37  A    between atoms: _83  and  _85
REMARK   38  A    between atoms: _85  and  _86
REMARK   39  A    between atoms: _85  and  _88
REMARK   40  A    between atoms: _88  and  _89
REMARK   41  A    between atoms: _94  and  _96
REMARK   42  A    between atoms: _96  and  _97
REMARK   43  A    between atoms: _100  and  _102
REMARK   44  A    between atoms: _102  and  _103
REMARK   45  A    between atoms: _105  and  _107
REMARK   46  A    between atoms: _107  and  _108
REMARK   47  A    between atoms: _107  and  _110
REMARK   48  A    between atoms: _110  and  _111
REMARK   49  A    between atoms: _114  and  _116
REMARK   50  A    between atoms: _116  and  _117
REMARK   51  A    between atoms: _120  and  _122
REMARK   52  A    between atoms: _122  and  _123
REMARK   53  A    between atoms: _122  and  _125
REMARK   54  A    between atoms: _125  and  _126
REMARK   55  A    between atoms: _126  and  _127
REMARK   56  A    between atoms: _129  and  _131
REMARK   57  A    between atoms: _131  and  _132
REMARK   58  A    between atoms: _131  and  _134
REMARK   59  A    between atoms: _134  and  _135
REMARK   60  A    between atoms: _135  and  _136
REMARK   61  A    between atoms: _136  and  _137
REMARK   62  A    between atoms: _147  and  _148
REMARK   63  A    between atoms: _153  and  _155
REMARK   64  A    between atoms: _155  and  _156
REMARK   65  A    between atoms: _155  and  _158
REMARK   66  A    between atoms: _158  and  _159
REMARK   67  A    between atoms: _159  and  _160
REMARK   68  A    between atoms: _160  and  _161
REMARK   69  A    between atoms: _171  and  _172
REMARK   70  A    between atoms: _177  and  _179
REMARK   71  A    between atoms: _179  and  _180
REMARK   72  A    between atoms: _182  and  _184
REMARK   73  A    between atoms: _184  and  _185
REMARK   74  A    between atoms: _184  and  _187
REMARK   75  A    between atoms: _187  and  _188
REMARK   76  A    between atoms: _190  and  _192
REMARK   77  A    between atoms: _192  and  _193
REMARK   78  A    between atoms: _192  and  _195
REMARK   79  A    between atoms: _198  and  _200
REMARK   80  A    between atoms: _200  and  _201
REMARK   81  A    between atoms: _200  and  _203
REMARK   82  A    between atoms: _203  and  _204
REMARK   83  A    between atoms: _206  and  _208
REMARK   84  A    between atoms: _208  and  _209
REMARK   85  A    between atoms: _208  and  _211
REMARK   86  A    between atoms: _211  and  _212
REMARK   87  A    between atoms: _214  and  _216
REMARK   88  A    between atoms: _216  and  _217
REMARK   89  A    between atoms: _216  and  _219
REMARK   90  A    between atoms: _219  and  _220
REMARK   91  A    between atoms: _220  and  _221
REMARK   92  A    between atoms: _226  and  _228
REMARK   93  A    between atoms: _228  and  _229
REMARK   94  A    between atoms: _228  and  _231
REMARK   95  A    between atoms: _231  and  _232
REMARK   96  A    between atoms: _238  and  _240
REMARK   97  A    between atoms: _240  and  _241
REMARK   98  A    between atoms: _240  and  _243
REMARK   99  A    between atoms: _243  and  _244
REMARK  100  A    between atoms: _247  and  _249
REMARK  101  A    between atoms: _249  and  _250
REMARK  102  A    between atoms: _249  and  _252
REMARK  103  A    between atoms: _252  and  _253
REMARK  104  A    between atoms: _256  and  _258
REMARK  105  A    between atoms: _258  and  _259
REMARK  106  A    between atoms: _262  and  _264
REMARK  107  A    between atoms: _264  and  _265
REMARK  108  A    between atoms: _264  and  _267
REMARK  109  A    between atoms: _267  and  _268
REMARK  110  A    between atoms: _268  and  _269
REMARK  111  A    between atoms: _271  and  _273
REMARK  112  A    between atoms: _273  and  _274
REMARK  113  A    between atoms: _273  and  _276
REMARK  114  A    between atoms: _276  and  _277
REMARK  115  A    between atoms: _280  and  _282
REMARK  116  A    between atoms: _282  and  _283
REMARK  117  A    between atoms: _282  and  _285
REMARK  118  A    between atoms: _288  and  _290
REMARK  119  A    between atoms: _290  and  _291
REMARK  120  A    between atoms: _290  and  _293
REMARK  121  A    between atoms: _293  and  _294
REMARK  122  A    between atoms: _296  and  _298
REMARK  123  A    between atoms: _298  and  _299
REMARK  124  A    between atoms: _298  and  _301
REMARK  125  A    between atoms: _301  and  _302
REMARK  126  A    between atoms: _302  and  _303
REMARK  127  A    between atoms: _303  and  _304
REMARK  128  A    between atoms: _304  and  _305
REMARK  129  A    between atoms: _310  and  _311
REMARK  130  A    between atoms: _316  and  _318
REMARK  131  A    between atoms: _318  and  _319
REMARK  132  A    between atoms: _318  and  _321
REMARK  133  A    between atoms: _321  and  _322
REMARK  134  A    between atoms: _327  and  _328
REMARK  135  A    between atoms: _330  and  _332
REMARK  136  A    between atoms: _332  and  _333
REMARK  137  A    between atoms: _332  and  _335
REMARK  138  A    between atoms: _335  and  _336
REMARK  139  A    between atoms: _339  and  _341
REMARK  140  A    between atoms: _341  and  _342
REMARK  141  A    between atoms: _341  and  _344
REMARK  142  A    between atoms: _344  and  _345
REMARK  143  A    between atoms: _348  and  _350
REMARK  144  A    between atoms: _350  and  _351
REMARK  145  A    between atoms: _350  and  _353
REMARK  146  A    between atoms: _353  and  _354
REMARK  147  A    between atoms: _357  and  _359
REMARK  148  A    between atoms: _359  and  _360
REMARK  149  A    between atoms: _359  and  _362
REMARK  150  A    between atoms: _362  and  _363
REMARK  151  A    between atoms: _366  and  _368
REMARK  152  A    between atoms: _368  and  _369
REMARK  153  A    between atoms: _368  and  _371
REMARK  154  A    between atoms: _371  and  _372
REMARK  155  A    between atoms: _374  and  _376
REMARK  156  A    between atoms: _376  and  _377
REMARK  157  A    between atoms: _376  and  _379
REMARK  158  A    between atoms: _379  and  _380
REMARK  159  A    between atoms: _385  and  _386
REMARK  160  A    between atoms: _388  and  _390
REMARK  161  A    between atoms: _390  and  _391
REMARK  162  A    between atoms: _390  and  _393
REMARK  163  A    between atoms: _393  and  _394
REMARK  164  A    between atoms: _397  and  _399
REMARK  165  A    between atoms: _399  and  _400
REMARK  166  A    between atoms: _399  and  _402
REMARK  167  A    between atoms: _402  and  _403
REMARK  168  A    between atoms: _408  and  _410
REMARK  169  A    between atoms: _410  and  _411
REMARK  170  A    between atoms: _410  and  _413
REMARK  171  A    between atoms: _413  and  _414
REMARK  172  A    between atoms: _418  and  _419
REMARK  173  A    between atoms: _424  and  _426
REMARK  174  A    between atoms: _426  and  _427
REMARK  175  A    between atoms: _426  and  _429
REMARK  176  A    between atoms: _429  and  _430
REMARK  177  A    between atoms: _433  and  _435
REMARK  178  A    between atoms: _435  and  _436
REMARK  179  A    between atoms: _439  and  _441
REMARK  180  A    between atoms: _441  and  _442
REMARK  181  A    between atoms: _441  and  _444
REMARK  182  A    between atoms: _444  and  _445
REMARK  183  A    between atoms: _445  and  _446
REMARK  184  A    between atoms: _448  and  _450
REMARK  185  A    between atoms: _450  and  _451
REMARK  186  A    between atoms: _450  and  _453
REMARK  187  A    between atoms: _453  and  _454
REMARK  188  A    between atoms: _459  and  _461
REMARK  189  A    between atoms: _461  and  _462
REMARK  190  A    between atoms: _461  and  _464
REMARK  191  A    between atoms: _464  and  _465
REMARK  192  A    between atoms: _475  and  _477
REMARK  193  A    between atoms: _477  and  _478
REMARK  194  A    between atoms: _477  and  _480
REMARK  195  A    between atoms: _483  and  _485
REMARK  196  A    between atoms: _485  and  _486
REMARK  197  A    between atoms: _485  and  _488
REMARK  198  A    between atoms: _488  and  _489
REMARK  199  A    between atoms: _489  and  _490
REMARK  200  A    between atoms: _490  and  _491
REMARK  201  A    between atoms: _491  and  _492
REMARK  202  A    between atoms: _496  and  _498
REMARK  203  A    between atoms: _498  and  _499
REMARK  204  A    between atoms: _498  and  _501
REMARK  205  A    between atoms: _501  and  _502
REMARK  206  A    between atoms: _502  and  _503
REMARK  207  A    between atoms: _506  and  _508
REMARK  208  A    between atoms: _508  and  _509
REMARK  209  A    between atoms: _508  and  _511
REMARK  210  A    between atoms: _511  and  _512
REMARK  211  A    between atoms: _515  and  _517
REMARK  212  A    between atoms: _517  and  _518
REMARK  213  A    between atoms: _517  and  _520
REMARK  214  A    between atoms: _520  and  _521
REMARK  215  A    between atoms: _521  and  _522
REMARK  216  A    between atoms: _522  and  _523
REMARK  217  A    between atoms: _532  and  _534
REMARK  218  A    between atoms: _534  and  _535
REMARK  219  A    between atoms: _534  and  _537
REMARK  220  A    between atoms: _537  and  _538
REMARK  221  A    between atoms: _543  and  _545
REMARK  222  A    between atoms: _545  and  _546
REMARK  223  A    between atoms: _545  and  _548
REMARK  224  A    between atoms: _548  and  _549
REMARK  225  A    between atoms: _552  and  _554
REMARK  226  A    between atoms: _554  and  _555
REMARK  227  A    between atoms: _554  and  _557
REMARK  228  A    between atoms: _557  and  _558
REMARK  229  A    between atoms: _563  and  _565
REMARK  230  A    between atoms: _565  and  _566
REMARK  231  A    between atoms: _565  and  _568
REMARK  232  A    between atoms: _568  and  _569
REMARK  233  A    between atoms: _569  and  _570
REMARK  234  A    between atoms: _570  and  _571
REMARK  235  A    between atoms: _580  and  _582
REMARK  236  A    between atoms: _582  and  _583
REMARK  237  A    between atoms: _582  and  _585
REMARK  238  A    between atoms: _585  and  _586
REMARK  239  A    between atoms: _586  and  _587
REMARK  240  A    between atoms: _589  and  _591
REMARK  241  A    between atoms: _591  and  _592
REMARK  242  A    between atoms: _591  and  _594
REMARK  243  A    between atoms: _594  and  _595
REMARK  244  A    between atoms: _595  and  _596
REMARK  245  A    between atoms: _598  and  _600
REMARK  246  A    between atoms: _600  and  _601
REMARK  247  A    between atoms: _600  and  _603
REMARK  248  A    between atoms: _603  and  _604
REMARK  249  A    between atoms: _604  and  _605
REMARK  250  A    between atoms: _605  and  _606
REMARK  251  A    between atoms: _606  and  _607
REMARK  252  A    between atoms: _611  and  _613
REMARK  253  A    between atoms: _613  and  _614
REMARK  254  A    between atoms: _613  and  _616
REMARK  255  A    between atoms: _616  and  _617
REMARK                            x       y       z     vdW  Elec       q    Type
REMARK                         _______ _______ _______ _____ _____    ______ ____
ROOT
ATOM      1  O   HOH     1      56.044  13.797  23.637  0.00  0.00    +0.000 OA
ENDROOT
TORSDOF 0
REMARK  Name = ../refined-set-2016/1x8t/1x8t_pocket.pdb
REMARK  255 active torsions:
REMARK  status: ('A' for Active; 'I' for Inactive)
REMARK    1  A    between atoms: _1  and  _3
REMARK    2  A    between atoms: _3  and  _4
REMARK    3  A    between atoms: _3  and  _6
REMARK    4  A    between atoms: _6  and  _7
REMARK    5  A    between atoms: _9  and  _11
REMARK    6  A    between atoms: _11  and  _12
REMARK    7  A    between atoms: _11  and  _14
REMARK    8  A    between atoms: _14  and  _15
REMARK    9  A    between atoms: _15  and  _16
REMARK   10  A    between atoms: _16  and  _17
REMARK   11  A    between atoms: _17  and  _18
REMARK   12  A    between atoms: _22  and  _24
REMARK   13  A    between atoms: _24  and  _25
REMARK   14  A    between atoms: _24  and  _27
REMARK   15  A    between atoms: _27  and  _28
REMARK   16  A    between atoms: _30  and  _32
REMARK   17  A    between atoms: _32  and  _33
REMARK   18  A    between atoms: _32  and  _35
REMARK   19  A    between atoms: _38  and  _40
REMARK   20  A    between atoms: _40  and  _41
REMARK   21  A    between atoms: _40  and  _43
REMARK   22  A    between atoms: _43  and  _44
REMARK   23  A    between atoms: _46  and  _48
REMARK   24  A    between atoms: _48  and  _49
REMARK   25  A    between atoms: _48  and  _51
REMARK   26  A    between atoms: _51  and  _52
REMARK   27  A    between atoms: _57  and  _59
REMARK   28  A    between atoms: _59  and  _60
REMARK   29  A    between atoms: _59  and  _62
REMARK   30  A    between atoms: _62  and  _63
REMARK   31  A    between atoms: _63  and  _64
REMARK   32  A    between atoms: _64  and  _65
REMARK   33  A    between atoms: _74  and  _76
REMARK   34  A    between atoms: _76  and  _77
REMARK   35  A    between atoms: _76  and  _79
REMARK   36  A    between atoms: _79  and  _80
REMARK   37  A    between atoms: _83  and  _85
REMARK   38  A    between atoms: _85  and  _86
REMARK   39  A    between atoms: _85  and  _88
REMARK   40  A    between atoms: _88  and  _89
REMARK   41  A    between atoms: _94  and  _96
REMARK   42  A    between atoms: _96  and  _97
REMARK   43  A    between atoms: _100  and  _102
REMARK   44  A    between atoms: _102  and  _103
REMARK   45  A    between atoms: _105  and  _107
REMARK   46  A    between atoms: _107  and  _108
REMARK   47  A    between atoms: _107  and  _110
REMARK   48  A    between atoms: _110  and  _111
REMARK   49  A    between atoms: _114  and  _116
REMARK   50  A    between atoms: _116  and  _117
REMARK   51  A    between atoms: _120  and  _122
REMARK   52  A    between atoms: _122  and  _123
REMARK   53  A    between atoms: _122  and  _125
REMARK   54  A    between atoms: _125  and  _126
REMARK   55  A    between atoms: _126  and  _127
REMARK   56  A    between atoms: _129  and  _131
REMARK   57  A    between atoms: _131  and  _132
REMARK   58  A    between atoms: _131  and  _134
REMARK   59  A    between atoms: _134  and  _135
REMARK   60  A    between atoms: _135  and  _136
REMARK   61  A    between atoms: _136  and  _137
REMARK   62  A    between atoms: _147  and  _148
REMARK   63  A    between atoms: _153  and  _155
REMARK   64  A    between atoms: _155  and  _156
REMARK   65  A    between atoms: _155  and  _158
REMARK   66  A    between atoms: _158  and  _159
REMARK   67  A    between atoms: _159  and  _160
REMARK   68  A    between atoms: _160  and  _161
REMARK   69  A    between atoms: _171  and  _172
REMARK   70  A    between atoms: _177  and  _179
REMARK   71  A    between atoms: _179  and  _180
REMARK   72  A    between atoms: _182  and  _184
REMARK   73  A    between atoms: _184  and  _185
REMARK   74  A    between atoms: _184  and  _187
REMARK   75  A    between atoms: _187  and  _188
REMARK   76  A    between atoms: _190  and  _192
REMARK   77  A    between atoms: _192  and  _193
REMARK   78  A    between atoms: _192  and  _195
REMARK   79  A    between atoms: _198  and  _200
REMARK   80  A    between atoms: _200  and  _201
REMARK   81  A    between atoms: _200  and  _203
REMARK   82  A    between atoms: _203  and  _204
REMARK   83  A    between atoms: _206  and  _208
REMARK   84  A    between atoms: _208  and  _209
REMARK   85  A    between atoms: _208  and  _211
REMARK   86  A    between atoms: _211  and  _212
REMARK   87  A    between atoms: _214  and  _216
REMARK   88  A    between atoms: _216  and  _217
REMARK   89  A    between atoms: _216  and  _219
REMARK   90  A    between atoms: _219  and  _220
REMARK   91  A    between atoms: _220  and  _221
REMARK   92  A    between atoms: _226  and  _228
REMARK   93  A    between atoms: _228  and  _229
REMARK   94  A    between atoms: _228  and  _231
REMARK   95  A    between atoms: _231  and  _232
REMARK   96  A    between atoms: _238  and  _240
REMARK   97  A    between atoms: _240  and  _241
REMARK   98  A    between atoms: _240  and  _243
REMARK   99  A    between atoms: _243  and  _244
REMARK  100  A    between atoms: _247  and  _249
REMARK  101  A    between atoms: _249  and  _250
REMARK  102  A    between atoms: _249  and  _252
REMARK  103  A    between atoms: _252  and  _253
REMARK  104  A    between atoms: _256  and  _258
REMARK  105  A    between atoms: _258  and  _259
REMARK  106  A    between atoms: _262  and  _264
REMARK  107  A    between atoms: _264  and  _265
REMARK  108  A    between atoms: _264  and  _267
REMARK  109  A    between atoms: _267  and  _268
REMARK  110  A    between atoms: _268  and  _269
REMARK  111  A    between atoms: _271  and  _273
REMARK  112  A    between atoms: _273  and  _274
REMARK  113  A    between atoms: _273  and  _276
REMARK  114  A    between atoms: _276  and  _277
REMARK  115  A    between atoms: _280  and  _282
REMARK  116  A    between atoms: _282  and  _283
REMARK  117  A    between atoms: _282  and  _285
REMARK  118  A    between atoms: _288  and  _290
REMARK  119  A    between atoms: _290  and  _291
REMARK  120  A    between atoms: _290  and  _293
REMARK  121  A    between atoms: _293  and  _294
REMARK  122  A    between atoms: _296  and  _298
REMARK  123  A    between atoms: _298  and  _299
REMARK  124  A    between atoms: _298  and  _301
REMARK  125  A    between atoms: _301  and  _302
REMARK  126  A    between atoms: _302  and  _303
REMARK  127  A    between atoms: _303  and  _304
REMARK  128  A    between atoms: _304  and  _305
REMARK  129  A    between atoms: _310  and  _311
REMARK  130  A    between atoms: _316  and  _318
REMARK  131  A    between atoms: _318  and  _319
REMARK  132  A    between atoms: _318  and  _321
REMARK  133  A    between atoms: _321  and  _322
REMARK  134  A    between atoms: _327  and  _328
REMARK  135  A    between atoms: _330  and  _332
REMARK  136  A    between atoms: _332  and  _333
REMARK  137  A    between atoms: _332  and  _335
REMARK  138  A    between atoms: _335  and  _336
REMARK  139  A    between atoms: _339  and  _341
REMARK  140  A    between atoms: _341  and  _342
REMARK  141  A    between atoms: _341  and  _344
REMARK  142  A    between atoms: _344  and  _345
REMARK  143  A    between atoms: _348  and  _350
REMARK  144  A    between atoms: _350  and  _351
REMARK  145  A    between atoms: _350  and  _353
REMARK  146  A    between atoms: _353  and  _354
REMARK  147  A    between atoms: _357  and  _359
REMARK  148  A    between atoms: _359  and  _360
REMARK  149  A    between atoms: _359  and  _362
REMARK  150  A    between atoms: _362  and  _363
REMARK  151  A    between atoms: _366  and  _368
REMARK  152  A    between atoms: _368  and  _369
REMARK  153  A    between atoms: _368  and  _371
REMARK  154  A    between atoms: _371  and  _372
REMARK  155  A    between atoms: _374  and  _376
REMARK  156  A    between atoms: _376  and  _377
REMARK  157  A    between atoms: _376  and  _379
REMARK  158  A    between atoms: _379  and  _380
REMARK  159  A    between atoms: _385  and  _386
REMARK  160  A    between atoms: _388  and  _390
REMARK  161  A    between atoms: _390  and  _391
REMARK  162  A    between atoms: _390  and  _393
REMARK  163  A    between atoms: _393  and  _394
REMARK  164  A    between atoms: _397  and  _399
REMARK  165  A    between atoms: _399  and  _400
REMARK  166  A    between atoms: _399  and  _402
REMARK  167  A    between atoms: _402  and  _403
REMARK  168  A    between atoms: _408  and  _410
REMARK  169  A    between atoms: _410  and  _411
REMARK  170  A    between atoms: _410  and  _413
REMARK  171  A    between atoms: _413  and  _414
REMARK  172  A    between atoms: _418  and  _419
REMARK  173  A    between atoms: _424  and  _426
REMARK  174  A    between atoms: _426  and  _427
REMARK  175  A    between atoms: _426  and  _429
REMARK  176  A    between atoms: _429  and  _430
REMARK  177  A    between atoms: _433  and  _435
REMARK  178  A    between atoms: _435  and  _436
REMARK  179  A    between atoms: _439  and  _441
REMARK  180  A    between atoms: _441  and  _442
REMARK  181  A    between atoms: _441  and  _444
REMARK  182  A    between atoms: _444  and  _445
REMARK  183  A    between atoms: _445  and  _446
REMARK  184  A    between atoms: _448  and  _450
REMARK  185  A    between atoms: _450  and  _451
REMARK  186  A    between atoms: _450  and  _453
REMARK  187  A    between atoms: _453  and  _454
REMARK  188  A    between atoms: _459  and  _461
REMARK  189  A    between atoms: _461  and  _462
REMARK  190  A    between atoms: _461  and  _464
REMARK  191  A    between atoms: _464  and  _465
REMARK  192  A    between atoms: _475  and  _477
REMARK  193  A    between atoms: _477  and  _478
REMARK  194  A    between atoms: _477  and  _480
REMARK  195  A    between atoms: _483  and  _485
REMARK  196  A    between atoms: _485  and  _486
REMARK  197  A    between atoms: _485  and  _488
REMARK  198  A    between atoms: _488  and  _489
REMARK  199  A    between atoms: _489  and  _490
REMARK  200  A    between atoms: _490  and  _491
REMARK  201  A    between atoms: _491  and  _492
REMARK  202  A    between atoms: _496  and  _498
REMARK  203  A    between atoms: _498  and  _499
REMARK  204  A    between atoms: _498  and  _501
REMARK  205  A    between atoms: _501  and  _502
REMARK  206  A    between atoms: _502  and  _503
REMARK  207  A    between atoms: _506  and  _508
REMARK  208  A    between atoms: _508  and  _509
REMARK  209  A    between atoms: _508  and  _511
REMARK  210  A    between atoms: _511  and  _512
REMARK  211  A    between atoms: _515  and  _517
REMARK  212  A    between atoms: _517  and  _518
REMARK  213  A    between atoms: _517  and  _520
REMARK  214  A    between atoms: _520  and  _521
REMARK  215  A    between atoms: _521  and  _522
REMARK  216  A    between atoms: _522  and  _523
REMARK  217  A    between atoms: _532  and  _534
REMARK  218  A    between atoms: _534  and  _535
REMARK  219  A    between atoms: _534  and  _537
REMARK  220  A    between atoms: _537  and  _538
REMARK  221  A    between atoms: _543  and  _545
REMARK  222  A    between atoms: _545  and  _546
REMARK  223  A    between atoms: _545  and  _548
REMARK  224  A    between atoms: _548  and  _549
REMARK  225  A    between atoms: _552  and  _554
REMARK  226  A    between atoms: _554  and  _555
REMARK  227  A    between atoms: _554  and  _557
REMARK  228  A    between atoms: _557  and  _558
REMARK  229  A    between atoms: _563  and  _565
REMARK  230  A    between atoms: _565  and  _566
REMARK  231  A    between atoms: _565  and  _568
REMARK  232  A    between atoms: _568  and  _569
REMARK  233  A    between atoms: _569  and  _570
REMARK  234  A    between atoms: _570  and  _571
REMARK  235  A    between atoms: _580  and  _582
REMARK  236  A    between atoms: _582  and  _583
REMARK  237  A    between atoms: _582  and  _585
REMARK  238  A    between atoms: _585  and  _586
REMARK  239  A    between atoms: _586  and  _587
REMARK  240  A    between atoms: _589  and  _591
REMARK  241  A    between atoms: _591  and  _592
REMARK  242  A    between atoms: _591  and  _594
REMARK  243  A    between atoms: _594  and  _595
REMARK  244  A    between atoms: _595  and  _596
REMARK  245  A    between atoms: _598  and  _600
REMARK  246  A    between atoms: _600  and  _601
REMARK  247  A    between atoms: _600  and  _603
REMARK  248  A    between atoms: _603  and  _604
REMARK  249  A    between atoms: _604  and  _605
REMARK  250  A    between atoms: _605  and  _606
REMARK  251  A    between atoms: _606  and  _607
REMARK  252  A    between atoms: _611  and  _613
REMARK  253  A    between atoms: _613  and  _614
REMARK  254  A    between atoms: _613  and  _616
REMARK  255  A    between atoms: _616  and  _617
REMARK                            x       y       z     vdW  Elec       q    Type
REMARK                         _______ _______ _______ _____ _____    ______ ____
ROOT
ATOM      1  O   HOH     1      57.877  15.759  23.301  0.00  0.00    +0.000 OA
ENDROOT
TORSDOF 0
REMARK  Name = ../refined-set-2016/1x8t/1x8t_pocket.pdb
REMARK  255 active torsions:
REMARK  status: ('A' for Active; 'I' for Inactive)
REMARK    1  A    between atoms: _1  and  _3
REMARK    2  A    between atoms: _3  and  _4
REMARK    3  A    between atoms: _3  and  _6
REMARK    4  A    between atoms: _6  and  _7
REMARK    5  A    between atoms: _9  and  _11
REMARK    6  A    between atoms: _11  and  _12
REMARK    7  A    between atoms: _11  and  _14
REMARK    8  A    between atoms: _14  and  _15
REMARK    9  A    between atoms: _15  and  _16
REMARK   10  A    between atoms: _16  and  _17
REMARK   11  A    between atoms: _17  and  _18
REMARK   12  A    between atoms: _22  and  _24
REMARK   13  A    between atoms: _24  and  _25
REMARK   14  A    between atoms: _24  and  _27
REMARK   15  A    between atoms: _27  and  _28
REMARK   16  A    between atoms: _30  and  _32
REMARK   17  A    between atoms: _32  and  _33
REMARK   18  A    between atoms: _32  and  _35
REMARK   19  A    between atoms: _38  and  _40
REMARK   20  A    between atoms: _40  and  _41
REMARK   21  A    between atoms: _40  and  _43
REMARK   22  A    between atoms: _43  and  _44
REMARK   23  A    between atoms: _46  and  _48
REMARK   24  A    between atoms: _48  and  _49
REMARK   25  A    between atoms: _48  and  _51
REMARK   26  A    between atoms: _51  and  _52
REMARK   27  A    between atoms: _57  and  _59
REMARK   28  A    between atoms: _59  and  _60
REMARK   29  A    between atoms: _59  and  _62
REMARK   30  A    between atoms: _62  and  _63
REMARK   31  A    between atoms: _63  and  _64
REMARK   32  A    between atoms: _64  and  _65
REMARK   33  A    between atoms: _74  and  _76
REMARK   34  A    between atoms: _76  and  _77
REMARK   35  A    between atoms: _76  and  _79
REMARK   36  A    between atoms: _79  and  _80
REMARK   37  A    between atoms: _83  and  _85
REMARK   38  A    between atoms: _85  and  _86
REMARK   39  A    between atoms: _85  and  _88
REMARK   40  A    between atoms: _88  and  _89
REMARK   41  A    between atoms: _94  and  _96
REMARK   42  A    between atoms: _96  and  _97
REMARK   43  A    between atoms: _100  and  _102
REMARK   44  A    between atoms: _102  and  _103
REMARK   45  A    between atoms: _105  and  _107
REMARK   46  A    between atoms: _107  and  _108
REMARK   47  A    between atoms: _107  and  _110
REMARK   48  A    between atoms: _110  and  _111
REMARK   49  A    between atoms: _114  and  _116
REMARK   50  A    between atoms: _116  and  _117
REMARK   51  A    between atoms: _120  and  _122
REMARK   52  A    between atoms: _122  and  _123
REMARK   53  A    between atoms: _122  and  _125
REMARK   54  A    between atoms: _125  and  _126
REMARK   55  A    between atoms: _126  and  _127
REMARK   56  A    between atoms: _129  and  _131
REMARK   57  A    between atoms: _131  and  _132
REMARK   58  A    between atoms: _131  and  _134
REMARK   59  A    between atoms: _134  and  _135
REMARK   60  A    between atoms: _135  and  _136
REMARK   61  A    between atoms: _136  and  _137
REMARK   62  A    between atoms: _147  and  _148
REMARK   63  A    between atoms: _153  and  _155
REMARK   64  A    between atoms: _155  and  _156
REMARK   65  A    between atoms: _155  and  _158
REMARK   66  A    between atoms: _158  and  _159
REMARK   67  A    between atoms: _159  and  _160
REMARK   68  A    between atoms: _160  and  _161
REMARK   69  A    between atoms: _171  and  _172
REMARK   70  A    between atoms: _177  and  _179
REMARK   71  A    between atoms: _179  and  _180
REMARK   72  A    between atoms: _182  and  _184
REMARK   73  A    between atoms: _184  and  _185
REMARK   74  A    between atoms: _184  and  _187
REMARK   75  A    between atoms: _187  and  _188
REMARK   76  A    between atoms: _190  and  _192
REMARK   77  A    between atoms: _192  and  _193
REMARK   78  A    between atoms: _192  and  _195
REMARK   79  A    between atoms: _198  and  _200
REMARK   80  A    between atoms: _200  and  _201
REMARK   81  A    between atoms: _200  and  _203
REMARK   82  A    between atoms: _203  and  _204
REMARK   83  A    between atoms: _206  and  _208
REMARK   84  A    between atoms: _208  and  _209
REMARK   85  A    between atoms: _208  and  _211
REMARK   86  A    between atoms: _211  and  _212
REMARK   87  A    between atoms: _214  and  _216
REMARK   88  A    between atoms: _216  and  _217
REMARK   89  A    between atoms: _216  and  _219
REMARK   90  A    between atoms: _219  and  _220
REMARK   91  A    between atoms: _220  and  _221
REMARK   92  A    between atoms: _226  and  _228
REMARK   93  A    between atoms: _228  and  _229
REMARK   94  A    between atoms: _228  and  _231
REMARK   95  A    between atoms: _231  and  _232
REMARK   96  A    between atoms: _238  and  _240
REMARK   97  A    between atoms: _240  and  _241
REMARK   98  A    between atoms: _240  and  _243
REMARK   99  A    between atoms: _243  and  _244
REMARK  100  A    between atoms: _247  and  _249
REMARK  101  A    between atoms: _249  and  _250
REMARK  102  A    between atoms: _249  and  _252
REMARK  103  A    between atoms: _252  and  _253
REMARK  104  A    between atoms: _256  and  _258
REMARK  105  A    between atoms: _258  and  _259
REMARK  106  A    between atoms: _262  and  _264
REMARK  107  A    between atoms: _264  and  _265
REMARK  108  A    between atoms: _264  and  _267
REMARK  109  A    between atoms: _267  and  _268
REMARK  110  A    between atoms: _268  and  _269
REMARK  111  A    between atoms: _271  and  _273
REMARK  112  A    between atoms: _273  and  _274
REMARK  113  A    between atoms: _273  and  _276
REMARK  114  A    between atoms: _276  and  _277
REMARK  115  A    between atoms: _280  and  _282
REMARK  116  A    between atoms: _282  and  _283
REMARK  117  A    between atoms: _282  and  _285
REMARK  118  A    between atoms: _288  and  _290
REMARK  119  A    between atoms: _290  and  _291
REMARK  120  A    between atoms: _290  and  _293
REMARK  121  A    between atoms: _293  and  _294
REMARK  122  A    between atoms: _296  and  _298
REMARK  123  A    between atoms: _298  and  _299
REMARK  124  A    between atoms: _298  and  _301
REMARK  125  A    between atoms: _301  and  _302
REMARK  126  A    between atoms: _302  and  _303
REMARK  127  A    between atoms: _303  and  _304
REMARK  128  A    between atoms: _304  and  _305
REMARK  129  A    between atoms: _310  and  _311
REMARK  130  A    between atoms: _316  and  _318
REMARK  131  A    between atoms: _318  and  _319
REMARK  132  A    between atoms: _318  and  _321
REMARK  133  A    between atoms: _321  and  _322
REMARK  134  A    between atoms: _327  and  _328
REMARK  135  A    between atoms: _330  and  _332
REMARK  136  A    between atoms: _332  and  _333
REMARK  137  A    between atoms: _332  and  _335
REMARK  138  A    between atoms: _335  and  _336
REMARK  139  A    between atoms: _339  and  _341
REMARK  140  A    between atoms: _341  and  _342
REMARK  141  A    between atoms: _341  and  _344
REMARK  142  A    between atoms: _344  and  _345
REMARK  143  A    between atoms: _348  and  _350
REMARK  144  A    between atoms: _350  and  _351
REMARK  145  A    between atoms: _350  and  _353
REMARK  146  A    between atoms: _353  and  _354
REMARK  147  A    between atoms: _357  and  _359
REMARK  148  A    between atoms: _359  and  _360
REMARK  149  A    between atoms: _359  and  _362
REMARK  150  A    between atoms: _362  and  _363
REMARK  151  A    between atoms: _366  and  _368
REMARK  152  A    between atoms: _368  and  _369
REMARK  153  A    between atoms: _368  and  _371
REMARK  154  A    between atoms: _371  and  _372
REMARK  155  A    between atoms: _374  and  _376
REMARK  156  A    between atoms: _376  and  _377
REMARK  157  A    between atoms: _376  and  _379
REMARK  158  A    between atoms: _379  and  _380
REMARK  159  A    between atoms: _385  and  _386
REMARK  160  A    between atoms: _388  and  _390
REMARK  161  A    between atoms: _390  and  _391
REMARK  162  A    between atoms: _390  and  _393
REMARK  163  A    between atoms: _393  and  _394
REMARK  164  A    between atoms: _397  and  _399
REMARK  165  A    between atoms: _399  and  _400
REMARK  166  A    between atoms: _399  and  _402
REMARK  167  A    between atoms: _402  and  _403
REMARK  168  A    between atoms: _408  and  _410
REMARK  169  A    between atoms: _410  and  _411
REMARK  170  A    between atoms: _410  and  _413
REMARK  171  A    between atoms: _413  and  _414
REMARK  172  A    between atoms: _418  and  _419
REMARK  173  A    between atoms: _424  and  _426
REMARK  174  A    between atoms: _426  and  _427
REMARK  175  A    between atoms: _426  and  _429
REMARK  176  A    between atoms: _429  and  _430
REMARK  177  A    between atoms: _433  and  _435
REMARK  178  A    between atoms: _435  and  _436
REMARK  179  A    between atoms: _439  and  _441
REMARK  180  A    between atoms: _441  and  _442
REMARK  181  A    between atoms: _441  and  _444
REMARK  182  A    between atoms: _444  and  _445
REMARK  183  A    between atoms: _445  and  _446
REMARK  184  A    between atoms: _448  and  _450
REMARK  185  A    between atoms: _450  and  _451
REMARK  186  A    between atoms: _450  and  _453
REMARK  187  A    between atoms: _453  and  _454
REMARK  188  A    between atoms: _459  and  _461
REMARK  189  A    between atoms: _461  and  _462
REMARK  190  A    between atoms: _461  and  _464
REMARK  191  A    between atoms: _464  and  _465
REMARK  192  A    between atoms: _475  and  _477
REMARK  193  A    between atoms: _477  and  _478
REMARK  194  A    between atoms: _477  and  _480
REMARK  195  A    between atoms: _483  and  _485
REMARK  196  A    between atoms: _485  and  _486
REMARK  197  A    between atoms: _485  and  _488
REMARK  198  A    between atoms: _488  and  _489
REMARK  199  A    between atoms: _489  and  _490
REMARK  200  A    between atoms: _490  and  _491
REMARK  201  A    between atoms: _491  and  _492
REMARK  202  A    between atoms: _496  and  _498
REMARK  203  A    between atoms: _498  and  _499
REMARK  204  A    between atoms: _498  and  _501
REMARK  205  A    between atoms: _501  and  _502
REMARK  206  A    between atoms: _502  and  _503
REMARK  207  A    between atoms: _506  and  _508
REMARK  208  A    between atoms: _508  and  _509
REMARK  209  A    between atoms: _508  and  _511
REMARK  210  A    between atoms: _511  and  _512
REMARK  211  A    between atoms: _515  and  _517
REMARK  212  A    between atoms: _517  and  _518
REMARK  213  A    between atoms: _517  and  _520
REMARK  214  A    between atoms: _520  and  _521
REMARK  215  A    between atoms: _521  and  _522
REMARK  216  A    between atoms: _522  and  _523
REMARK  217  A    between atoms: _532  and  _534
REMARK  218  A    between atoms: _534  and  _535
REMARK  219  A    between atoms: _534  and  _537
REMARK  220  A    between atoms: _537  and  _538
REMARK  221  A    between atoms: _543  and  _545
REMARK  222  A    between atoms: _545  and  _546
REMARK  223  A    between atoms: _545  and  _548
REMARK  224  A    between atoms: _548  and  _549
REMARK  225  A    between atoms: _552  and  _554
REMARK  226  A    between atoms: _554  and  _555
REMARK  227  A    between atoms: _554  and  _557
REMARK  228  A    between atoms: _557  and  _558
REMARK  229  A    between atoms: _563  and  _565
REMARK  230  A    between atoms: _565  and  _566
REMARK  231  A    between atoms: _565  and  _568
REMARK  232  A    between atoms: _568  and  _569
REMARK  233  A    between atoms: _569  and  _570
REMARK  234  A    between atoms: _570  and  _571
REMARK  235  A    between atoms: _580  and  _582
REMARK  236  A    between atoms: _582  and  _583
REMARK  237  A    between atoms: _582  and  _585
REMARK  238  A    between atoms: _585  and  _586
REMARK  239  A    between atoms: _586  and  _587
REMARK  240  A    between atoms: _589  and  _591
REMARK  241  A    between atoms: _591  and  _592
REMARK  242  A    between atoms: _591  and  _594
REMARK  243  A    between atoms: _594  and  _595
REMARK  244  A    between atoms: _595  and  _596
REMARK  245  A    between atoms: _598  and  _600
REMARK  246  A    between atoms: _600  and  _601
REMARK  247  A    between atoms: _600  and  _603
REMARK  248  A    between atoms: _603  and  _604
REMARK  249  A    between atoms: _604  and  _605
REMARK  250  A    between atoms: _605  and  _606
REMARK  251  A    between atoms: _606  and  _607
REMARK  252  A    between atoms: _611  and  _613
REMARK  253  A    between atoms: _613  and  _614
REMARK  254  A    between atoms: _613  and  _616
REMARK  255  A    between atoms: _616  and  _617
REMARK                            x       y       z     vdW  Elec       q    Type
REMARK                         _______ _______ _______ _____ _____    ______ ____
ROOT
ATOM      1  O   HOH     1      64.634   3.414  25.271  0.00  0.00    +0.000 OA
ENDROOT
TORSDOF 0
