REMARK  Name = ../refined-set-2016/1nq7/1nq7_pocket.pdb
REMARK  235 active torsions:
REMARK  status: ('A' for Active; 'I' for Inactive)
REMARK    1  A    between atoms: _1  and  _3
REMARK    2  A    between atoms: _3  and  _4
REMARK    3  A    between atoms: _3  and  _6
REMARK    4  A    between atoms: _6  and  _7
REMARK    5  A    between atoms: _12  and  _14
REMARK    6  A    between atoms: _14  and  _15
REMARK    7  A    between atoms: _14  and  _17
REMARK    8  A    between atoms: _17  and  _18
REMARK    9  A    between atoms: _21  and  _23
REMARK   10  A    between atoms: _23  and  _24
REMARK   11  A    between atoms: _23  and  _26
REMARK   12  A    between atoms: _28  and  _30
REMARK   13  A    between atoms: _30  and  _31
REMARK   14  A    between atoms: _30  and  _33
REMARK   15  A    between atoms: _33  and  _34
REMARK   16  A    between atoms: _34  and  _35
REMARK   17  A    between atoms: _40  and  _42
REMARK   18  A    between atoms: _42  and  _43
REMARK   19  A    between atoms: _42  and  _45
REMARK   20  A    between atoms: _45  and  _46
REMARK   21  A    between atoms: _51  and  _52
REMARK   22  A    between atoms: _54  and  _56
REMARK   23  A    between atoms: _56  and  _57
REMARK   24  A    between atoms: _56  and  _59
REMARK   25  A    between atoms: _59  and  _60
REMARK   26  A    between atoms: _63  and  _65
REMARK   27  A    between atoms: _65  and  _66
REMARK   28  A    between atoms: _65  and  _68
REMARK   29  A    between atoms: _68  and  _69
REMARK   30  A    between atoms: _72  and  _74
REMARK   31  A    between atoms: _74  and  _75
REMARK   32  A    between atoms: _74  and  _77
REMARK   33  A    between atoms: _77  and  _78
REMARK   34  A    between atoms: _81  and  _83
REMARK   35  A    between atoms: _83  and  _84
REMARK   36  A    between atoms: _83  and  _86
REMARK   37  A    between atoms: _86  and  _87
REMARK   38  A    between atoms: _97  and  _99
REMARK   39  A    between atoms: _99  and  _100
REMARK   40  A    between atoms: _99  and  _102
REMARK   41  A    between atoms: _102  and  _103
REMARK   42  A    between atoms: _103  and  _104
REMARK   43  A    between atoms: _109  and  _111
REMARK   44  A    between atoms: _111  and  _112
REMARK   45  A    between atoms: _111  and  _114
REMARK   46  A    between atoms: _116  and  _118
REMARK   47  A    between atoms: _118  and  _119
REMARK   48  A    between atoms: _122  and  _124
REMARK   49  A    between atoms: _124  and  _125
REMARK   50  A    between atoms: _124  and  _127
REMARK   51  A    between atoms: _127  and  _128
REMARK   52  A    between atoms: _128  and  _129
REMARK   53  A    between atoms: _134  and  _136
REMARK   54  A    between atoms: _136  and  _137
REMARK   55  A    between atoms: _136  and  _139
REMARK   56  A    between atoms: _139  and  _140
REMARK   57  A    between atoms: _143  and  _145
REMARK   58  A    between atoms: _145  and  _146
REMARK   59  A    between atoms: _145  and  _148
REMARK   60  A    between atoms: _148  and  _149
REMARK   61  A    between atoms: _154  and  _156
REMARK   62  A    between atoms: _156  and  _157
REMARK   63  A    between atoms: _160  and  _162
REMARK   64  A    between atoms: _162  and  _163
REMARK   65  A    between atoms: _162  and  _165
REMARK   66  A    between atoms: _165  and  _166
REMARK   67  A    between atoms: _169  and  _171
REMARK   68  A    between atoms: _171  and  _172
REMARK   69  A    between atoms: _171  and  _174
REMARK   70  A    between atoms: _174  and  _175
REMARK   71  A    between atoms: _180  and  _181
REMARK   72  A    between atoms: _183  and  _185
REMARK   73  A    between atoms: _185  and  _186
REMARK   74  A    between atoms: _185  and  _188
REMARK   75  A    between atoms: _191  and  _193
REMARK   76  A    between atoms: _193  and  _194
REMARK   77  A    between atoms: _193  and  _196
REMARK   78  A    between atoms: _198  and  _200
REMARK   79  A    between atoms: _200  and  _201
REMARK   80  A    between atoms: _200  and  _203
REMARK   81  A    between atoms: _203  and  _204
REMARK   82  A    between atoms: _207  and  _209
REMARK   83  A    between atoms: _209  and  _210
REMARK   84  A    between atoms: _209  and  _212
REMARK   85  A    between atoms: _212  and  _213
REMARK   86  A    between atoms: _213  and  _214
REMARK   87  A    between atoms: _217  and  _219
REMARK   88  A    between atoms: _219  and  _220
REMARK   89  A    between atoms: _219  and  _222
REMARK   90  A    between atoms: _225  and  _227
REMARK   91  A    between atoms: _227  and  _228
REMARK   92  A    between atoms: _227  and  _230
REMARK   93  A    between atoms: _233  and  _235
REMARK   94  A    between atoms: _235  and  _236
REMARK   95  A    between atoms: _235  and  _238
REMARK   96  A    between atoms: _238  and  _239
REMARK   97  A    between atoms: _242  and  _244
REMARK   98  A    between atoms: _244  and  _245
REMARK   99  A    between atoms: _244  and  _247
REMARK  100  A    between atoms: _250  and  _252
REMARK  101  A    between atoms: _252  and  _253
REMARK  102  A    between atoms: _252  and  _255
REMARK  103  A    between atoms: _255  and  _256
REMARK  104  A    between atoms: _256  and  _257
REMARK  105  A    between atoms: _257  and  _258
REMARK  106  A    between atoms: _267  and  _269
REMARK  107  A    between atoms: _269  and  _270
REMARK  108  A    between atoms: _269  and  _272
REMARK  109  A    between atoms: _272  and  _273
REMARK  110  A    between atoms: _273  and  _274
REMARK  111  A    between atoms: _276  and  _278
REMARK  112  A    between atoms: _278  and  _279
REMARK  113  A    between atoms: _278  and  _281
REMARK  114  A    between atoms: _283  and  _285
REMARK  115  A    between atoms: _285  and  _286
REMARK  116  A    between atoms: _285  and  _288
REMARK  117  A    between atoms: _288  and  _289
REMARK  118  A    between atoms: _289  and  _290
REMARK  119  A    between atoms: _290  and  _291
REMARK  120  A    between atoms: _300  and  _302
REMARK  121  A    between atoms: _302  and  _303
REMARK  122  A    between atoms: _306  and  _308
REMARK  123  A    between atoms: _308  and  _309
REMARK  124  A    between atoms: _308  and  _311
REMARK  125  A    between atoms: _311  and  _312
REMARK  126  A    between atoms: _318  and  _320
REMARK  127  A    between atoms: _320  and  _321
REMARK  128  A    between atoms: _320  and  _323
REMARK  129  A    between atoms: _326  and  _328
REMARK  130  A    between atoms: _328  and  _329
REMARK  131  A    between atoms: _328  and  _331
REMARK  132  A    between atoms: _331  and  _332
REMARK  133  A    between atoms: _335  and  _337
REMARK  134  A    between atoms: _337  and  _338
REMARK  135  A    between atoms: _337  and  _340
REMARK  136  A    between atoms: _340  and  _341
REMARK  137  A    between atoms: _347  and  _349
REMARK  138  A    between atoms: _349  and  _350
REMARK  139  A    between atoms: _349  and  _352
REMARK  140  A    between atoms: _352  and  _353
REMARK  141  A    between atoms: _353  and  _354
REMARK  142  A    between atoms: _357  and  _359
REMARK  143  A    between atoms: _359  and  _360
REMARK  144  A    between atoms: _362  and  _364
REMARK  145  A    between atoms: _364  and  _365
REMARK  146  A    between atoms: _367  and  _369
REMARK  147  A    between atoms: _369  and  _370
REMARK  148  A    between atoms: _372  and  _374
REMARK  149  A    between atoms: _374  and  _375
REMARK  150  A    between atoms: _374  and  _377
REMARK  151  A    between atoms: _377  and  _378
REMARK  152  A    between atoms: _378  and  _379
REMARK  153  A    between atoms: _381  and  _383
REMARK  154  A    between atoms: _383  and  _384
REMARK  155  A    between atoms: _383  and  _386
REMARK  156  A    between atoms: _386  and  _387
REMARK  157  A    between atoms: _387  and  _388
REMARK  158  A    between atoms: _390  and  _392
REMARK  159  A    between atoms: _392  and  _393
REMARK  160  A    between atoms: _392  and  _395
REMARK  161  A    between atoms: _395  and  _396
REMARK  162  A    between atoms: _402  and  _404
REMARK  163  A    between atoms: _404  and  _405
REMARK  164  A    between atoms: _404  and  _407
REMARK  165  A    between atoms: _407  and  _408
REMARK  166  A    between atoms: _411  and  _413
REMARK  167  A    between atoms: _413  and  _414
REMARK  168  A    between atoms: _413  and  _416
REMARK  169  A    between atoms: _416  and  _417
REMARK  170  A    between atoms: _419  and  _421
REMARK  171  A    between atoms: _421  and  _422
REMARK  172  A    between atoms: _421  and  _424
REMARK  173  A    between atoms: _424  and  _425
REMARK  174  A    between atoms: _428  and  _430
REMARK  175  A    between atoms: _430  and  _431
REMARK  176  A    between atoms: _430  and  _433
REMARK  177  A    between atoms: _436  and  _438
REMARK  178  A    between atoms: _438  and  _439
REMARK  179  A    between atoms: _438  and  _441
REMARK  180  A    between atoms: _441  and  _442
REMARK  181  A    between atoms: _447  and  _449
REMARK  182  A    between atoms: _449  and  _450
REMARK  183  A    between atoms: _449  and  _452
REMARK  184  A    between atoms: _452  and  _453
REMARK  185  A    between atoms: _453  and  _454
REMARK  186  A    between atoms: _457  and  _459
REMARK  187  A    between atoms: _459  and  _460
REMARK  188  A    between atoms: _463  and  _465
REMARK  189  A    between atoms: _465  and  _466
REMARK  190  A    between atoms: _465  and  _468
REMARK  191  A    between atoms: _468  and  _469
REMARK  192  A    between atoms: _475  and  _477
REMARK  193  A    between atoms: _477  and  _478
REMARK  194  A    between atoms: _477  and  _480
REMARK  195  A    between atoms: _480  and  _481
REMARK  196  A    between atoms: _487  and  _489
REMARK  197  A    between atoms: _489  and  _490
REMARK  198  A    between atoms: _489  and  _492
REMARK  199  A    between atoms: _492  and  _493
REMARK  200  A    between atoms: _496  and  _498
REMARK  201  A    between atoms: _498  and  _499
REMARK  202  A    between atoms: _498  and  _501
REMARK  203  A    between atoms: _504  and  _506
REMARK  204  A    between atoms: _506  and  _507
REMARK  205  A    between atoms: _506  and  _509
REMARK  206  A    between atoms: _511  and  _513
REMARK  207  A    between atoms: _513  and  _514
REMARK  208  A    between atoms: _513  and  _516
REMARK  209  A    between atoms: _516  and  _517
REMARK  210  A    between atoms: _522  and  _524
REMARK  211  A    between atoms: _524  and  _525
REMARK  212  A    between atoms: _524  and  _527
REMARK  213  A    between atoms: _527  and  _528
REMARK  214  A    between atoms: _531  and  _533
REMARK  215  A    between atoms: _533  and  _534
REMARK  216  A    between atoms: _533  and  _536
REMARK  217  A    between atoms: _536  and  _537
REMARK  218  A    between atoms: _542  and  _544
REMARK  219  A    between atoms: _544  and  _545
REMARK  220  A    between atoms: _547  and  _549
REMARK  221  A    between atoms: _549  and  _550
REMARK  222  A    between atoms: _549  and  _552
REMARK  223  A    between atoms: _552  and  _553
REMARK  224  A    between atoms: _553  and  _554
REMARK  225  A    between atoms: _554  and  _555
REMARK  226  A    between atoms: _555  and  _556
REMARK  227  A    between atoms: _560  and  _562
REMARK  228  A    between atoms: _562  and  _563
REMARK  229  A    between atoms: _562  and  _565
REMARK  230  A    between atoms: _565  and  _566
REMARK  231  A    between atoms: _571  and  _572
REMARK  232  A    between atoms: _574  and  _576
REMARK  233  A    between atoms: _576  and  _577
REMARK  234  A    between atoms: _576  and  _579
REMARK  235  A    between atoms: _579  and  _580
REMARK                            x       y       z     vdW  Elec       q    Type
REMARK                         _______ _______ _______ _____ _____    ______ ____
ROOT
ATOM      1  CB  HIS A   1      27.328  14.839  16.818  0.00  0.00    +0.072 C 
ENDROOT
BRANCH   1   2
ATOM      2  CG  HIS A   1      27.613  16.271  17.138  0.00  0.00    +0.082 A 
ATOM      3  CD2 HIS A   1      28.531  16.832  17.968  0.00  0.00    +0.115 A 
ATOM      4  NE2 HIS A   1      28.383  18.193  17.873  0.00  0.00    -0.221 NA
ATOM      5  CE1 HIS A   1      27.415  18.463  17.019  0.00  0.00    +0.199 A 
ATOM      6  ND1 HIS A   1      26.932  17.323  16.560  0.00  0.00    -0.227 NA
ENDBRANCH   1   2
BRANCH   1   7
ATOM      7  CA  HIS A   1      28.051  14.327  15.571  0.00  0.00    +0.139 C 
BRANCH   7   8
ATOM      8  N   HIS A   1      27.886  12.880  15.464  0.00  0.00    -0.239 NA
ATOM      9  H   HIS A   1      27.327  12.377  16.182  0.00  0.00    +0.142 HD
ENDBRANCH   7   8
BRANCH   7  10
ATOM     10  C   HIS A   1      29.537  14.684  15.652  0.00  0.00    +0.224 C 
ATOM     11  O   HIS A   1      30.005  15.594  14.970  0.00  0.00    -0.287 OA
ENDBRANCH   7  10
ENDBRANCH   1   7
TORSDOF 4
REMARK  Name = ../refined-set-2016/1nq7/1nq7_pocket.pdb
REMARK  235 active torsions:
REMARK  status: ('A' for Active; 'I' for Inactive)
REMARK    1  A    between atoms: _1  and  _3
REMARK    2  A    between atoms: _3  and  _4
REMARK    3  A    between atoms: _3  and  _6
REMARK    4  A    between atoms: _6  and  _7
REMARK    5  A    between atoms: _12  and  _14
REMARK    6  A    between atoms: _14  and  _15
REMARK    7  A    between atoms: _14  and  _17
REMARK    8  A    between atoms: _17  and  _18
REMARK    9  A    between atoms: _21  and  _23
REMARK   10  A    between atoms: _23  and  _24
REMARK   11  A    between atoms: _23  and  _26
REMARK   12  A    between atoms: _28  and  _30
REMARK   13  A    between atoms: _30  and  _31
REMARK   14  A    between atoms: _30  and  _33
REMARK   15  A    between atoms: _33  and  _34
REMARK   16  A    between atoms: _34  and  _35
REMARK   17  A    between atoms: _40  and  _42
REMARK   18  A    between atoms: _42  and  _43
REMARK   19  A    between atoms: _42  and  _45
REMARK   20  A    between atoms: _45  and  _46
REMARK   21  A    between atoms: _51  and  _52
REMARK   22  A    between atoms: _54  and  _56
REMARK   23  A    between atoms: _56  and  _57
REMARK   24  A    between atoms: _56  and  _59
REMARK   25  A    between atoms: _59  and  _60
REMARK   26  A    between atoms: _63  and  _65
REMARK   27  A    between atoms: _65  and  _66
REMARK   28  A    between atoms: _65  and  _68
REMARK   29  A    between atoms: _68  and  _69
REMARK   30  A    between atoms: _72  and  _74
REMARK   31  A    between atoms: _74  and  _75
REMARK   32  A    between atoms: _74  and  _77
REMARK   33  A    between atoms: _77  and  _78
REMARK   34  A    between atoms: _81  and  _83
REMARK   35  A    between atoms: _83  and  _84
REMARK   36  A    between atoms: _83  and  _86
REMARK   37  A    between atoms: _86  and  _87
REMARK   38  A    between atoms: _97  and  _99
REMARK   39  A    between atoms: _99  and  _100
REMARK   40  A    between atoms: _99  and  _102
REMARK   41  A    between atoms: _102  and  _103
REMARK   42  A    between atoms: _103  and  _104
REMARK   43  A    between atoms: _109  and  _111
REMARK   44  A    between atoms: _111  and  _112
REMARK   45  A    between atoms: _111  and  _114
REMARK   46  A    between atoms: _116  and  _118
REMARK   47  A    between atoms: _118  and  _119
REMARK   48  A    between atoms: _122  and  _124
REMARK   49  A    between atoms: _124  and  _125
REMARK   50  A    between atoms: _124  and  _127
REMARK   51  A    between atoms: _127  and  _128
REMARK   52  A    between atoms: _128  and  _129
REMARK   53  A    between atoms: _134  and  _136
REMARK   54  A    between atoms: _136  and  _137
REMARK   55  A    between atoms: _136  and  _139
REMARK   56  A    between atoms: _139  and  _140
REMARK   57  A    between atoms: _143  and  _145
REMARK   58  A    between atoms: _145  and  _146
REMARK   59  A    between atoms: _145  and  _148
REMARK   60  A    between atoms: _148  and  _149
REMARK   61  A    between atoms: _154  and  _156
REMARK   62  A    between atoms: _156  and  _157
REMARK   63  A    between atoms: _160  and  _162
REMARK   64  A    between atoms: _162  and  _163
REMARK   65  A    between atoms: _162  and  _165
REMARK   66  A    between atoms: _165  and  _166
REMARK   67  A    between atoms: _169  and  _171
REMARK   68  A    between atoms: _171  and  _172
REMARK   69  A    between atoms: _171  and  _174
REMARK   70  A    between atoms: _174  and  _175
REMARK   71  A    between atoms: _180  and  _181
REMARK   72  A    between atoms: _183  and  _185
REMARK   73  A    between atoms: _185  and  _186
REMARK   74  A    between atoms: _185  and  _188
REMARK   75  A    between atoms: _191  and  _193
REMARK   76  A    between atoms: _193  and  _194
REMARK   77  A    between atoms: _193  and  _196
REMARK   78  A    between atoms: _198  and  _200
REMARK   79  A    between atoms: _200  and  _201
REMARK   80  A    between atoms: _200  and  _203
REMARK   81  A    between atoms: _203  and  _204
REMARK   82  A    between atoms: _207  and  _209
REMARK   83  A    between atoms: _209  and  _210
REMARK   84  A    between atoms: _209  and  _212
REMARK   85  A    between atoms: _212  and  _213
REMARK   86  A    between atoms: _213  and  _214
REMARK   87  A    between atoms: _217  and  _219
REMARK   88  A    between atoms: _219  and  _220
REMARK   89  A    between atoms: _219  and  _222
REMARK   90  A    between atoms: _225  and  _227
REMARK   91  A    between atoms: _227  and  _228
REMARK   92  A    between atoms: _227  and  _230
REMARK   93  A    between atoms: _233  and  _235
REMARK   94  A    between atoms: _235  and  _236
REMARK   95  A    between atoms: _235  and  _238
REMARK   96  A    between atoms: _238  and  _239
REMARK   97  A    between atoms: _242  and  _244
REMARK   98  A    between atoms: _244  and  _245
REMARK   99  A    between atoms: _244  and  _247
REMARK  100  A    between atoms: _250  and  _252
REMARK  101  A    between atoms: _252  and  _253
REMARK  102  A    between atoms: _252  and  _255
REMARK  103  A    between atoms: _255  and  _256
REMARK  104  A    between atoms: _256  and  _257
REMARK  105  A    between atoms: _257  and  _258
REMARK  106  A    between atoms: _267  and  _269
REMARK  107  A    between atoms: _269  and  _270
REMARK  108  A    between atoms: _269  and  _272
REMARK  109  A    between atoms: _272  and  _273
REMARK  110  A    between atoms: _273  and  _274
REMARK  111  A    between atoms: _276  and  _278
REMARK  112  A    between atoms: _278  and  _279
REMARK  113  A    between atoms: _278  and  _281
REMARK  114  A    between atoms: _283  and  _285
REMARK  115  A    between atoms: _285  and  _286
REMARK  116  A    between atoms: _285  and  _288
REMARK  117  A    between atoms: _288  and  _289
REMARK  118  A    between atoms: _289  and  _290
REMARK  119  A    between atoms: _290  and  _291
REMARK  120  A    between atoms: _300  and  _302
REMARK  121  A    between atoms: _302  and  _303
REMARK  122  A    between atoms: _306  and  _308
REMARK  123  A    between atoms: _308  and  _309
REMARK  124  A    between atoms: _308  and  _311
REMARK  125  A    between atoms: _311  and  _312
REMARK  126  A    between atoms: _318  and  _320
REMARK  127  A    between atoms: _320  and  _321
REMARK  128  A    between atoms: _320  and  _323
REMARK  129  A    between atoms: _326  and  _328
REMARK  130  A    between atoms: _328  and  _329
REMARK  131  A    between atoms: _328  and  _331
REMARK  132  A    between atoms: _331  and  _332
REMARK  133  A    between atoms: _335  and  _337
REMARK  134  A    between atoms: _337  and  _338
REMARK  135  A    between atoms: _337  and  _340
REMARK  136  A    between atoms: _340  and  _341
REMARK  137  A    between atoms: _347  and  _349
REMARK  138  A    between atoms: _349  and  _350
REMARK  139  A    between atoms: _349  and  _352
REMARK  140  A    between atoms: _352  and  _353
REMARK  141  A    between atoms: _353  and  _354
REMARK  142  A    between atoms: _357  and  _359
REMARK  143  A    between atoms: _359  and  _360
REMARK  144  A    between atoms: _362  and  _364
REMARK  145  A    between atoms: _364  and  _365
REMARK  146  A    between atoms: _367  and  _369
REMARK  147  A    between atoms: _369  and  _370
REMARK  148  A    between atoms: _372  and  _374
REMARK  149  A    between atoms: _374  and  _375
REMARK  150  A    between atoms: _374  and  _377
REMARK  151  A    between atoms: _377  and  _378
REMARK  152  A    between atoms: _378  and  _379
REMARK  153  A    between atoms: _381  and  _383
REMARK  154  A    between atoms: _383  and  _384
REMARK  155  A    between atoms: _383  and  _386
REMARK  156  A    between atoms: _386  and  _387
REMARK  157  A    between atoms: _387  and  _388
REMARK  158  A    between atoms: _390  and  _392
REMARK  159  A    between atoms: _392  and  _393
REMARK  160  A    between atoms: _392  and  _395
REMARK  161  A    between atoms: _395  and  _396
REMARK  162  A    between atoms: _402  and  _404
REMARK  163  A    between atoms: _404  and  _405
REMARK  164  A    between atoms: _404  and  _407
REMARK  165  A    between atoms: _407  and  _408
REMARK  166  A    between atoms: _411  and  _413
REMARK  167  A    between atoms: _413  and  _414
REMARK  168  A    between atoms: _413  and  _416
REMARK  169  A    between atoms: _416  and  _417
REMARK  170  A    between atoms: _419  and  _421
REMARK  171  A    between atoms: _421  and  _422
REMARK  172  A    between atoms: _421  and  _424
REMARK  173  A    between atoms: _424  and  _425
REMARK  174  A    between atoms: _428  and  _430
REMARK  175  A    between atoms: _430  and  _431
REMARK  176  A    between atoms: _430  and  _433
REMARK  177  A    between atoms: _436  and  _438
REMARK  178  A    between atoms: _438  and  _439
REMARK  179  A    between atoms: _438  and  _441
REMARK  180  A    between atoms: _441  and  _442
REMARK  181  A    between atoms: _447  and  _449
REMARK  182  A    between atoms: _449  and  _450
REMARK  183  A    between atoms: _449  and  _452
REMARK  184  A    between atoms: _452  and  _453
REMARK  185  A    between atoms: _453  and  _454
REMARK  186  A    between atoms: _457  and  _459
REMARK  187  A    between atoms: _459  and  _460
REMARK  188  A    between atoms: _463  and  _465
REMARK  189  A    between atoms: _465  and  _466
REMARK  190  A    between atoms: _465  and  _468
REMARK  191  A    between atoms: _468  and  _469
REMARK  192  A    between atoms: _475  and  _477
REMARK  193  A    between atoms: _477  and  _478
REMARK  194  A    between atoms: _477  and  _480
REMARK  195  A    between atoms: _480  and  _481
REMARK  196  A    between atoms: _487  and  _489
REMARK  197  A    between atoms: _489  and  _490
REMARK  198  A    between atoms: _489  and  _492
REMARK  199  A    between atoms: _492  and  _493
REMARK  200  A    between atoms: _496  and  _498
REMARK  201  A    between atoms: _498  and  _499
REMARK  202  A    between atoms: _498  and  _501
REMARK  203  A    between atoms: _504  and  _506
REMARK  204  A    between atoms: _506  and  _507
REMARK  205  A    between atoms: _506  and  _509
REMARK  206  A    between atoms: _511  and  _513
REMARK  207  A    between atoms: _513  and  _514
REMARK  208  A    between atoms: _513  and  _516
REMARK  209  A    between atoms: _516  and  _517
REMARK  210  A    between atoms: _522  and  _524
REMARK  211  A    between atoms: _524  and  _525
REMARK  212  A    between atoms: _524  and  _527
REMARK  213  A    between atoms: _527  and  _528
REMARK  214  A    between atoms: _531  and  _533
REMARK  215  A    between atoms: _533  and  _534
REMARK  216  A    between atoms: _533  and  _536
REMARK  217  A    between atoms: _536  and  _537
REMARK  218  A    between atoms: _542  and  _544
REMARK  219  A    between atoms: _544  and  _545
REMARK  220  A    between atoms: _547  and  _549
REMARK  221  A    between atoms: _549  and  _550
REMARK  222  A    between atoms: _549  and  _552
REMARK  223  A    between atoms: _552  and  _553
REMARK  224  A    between atoms: _553  and  _554
REMARK  225  A    between atoms: _554  and  _555
REMARK  226  A    between atoms: _555  and  _556
REMARK  227  A    between atoms: _560  and  _562
REMARK  228  A    between atoms: _562  and  _563
REMARK  229  A    between atoms: _562  and  _565
REMARK  230  A    between atoms: _565  and  _566
REMARK  231  A    between atoms: _571  and  _572
REMARK  232  A    between atoms: _574  and  _576
REMARK  233  A    between atoms: _576  and  _577
REMARK  234  A    between atoms: _576  and  _579
REMARK  235  A    between atoms: _579  and  _580
REMARK                            x       y       z     vdW  Elec       q    Type
REMARK                         _______ _______ _______ _____ _____    ______ ____
ROOT
ATOM      1  CA  GLN A   3      32.058  20.814   9.245  0.00  0.00    +0.149 C 
ENDROOT
BRANCH   1   4
ATOM      2  C   CYS A   2      31.406  19.180  10.895  0.00  0.00    +0.242 C 
ATOM      3  O   CYS A   2      32.528  18.669  10.864  0.00  0.00    -0.273 OA
ATOM      4  N   GLN A   3      31.071  20.217  10.137  0.00  0.00    -0.297 N 
ATOM      5  H   GLN A   3      30.106  20.603  10.179  0.00  0.00    +0.150 HD
BRANCH   2   6
ATOM      6  CA  CYS A   2      30.334  18.606  11.813  0.00  0.00    +0.160 C 
BRANCH   6   8
ATOM      7  C   THR A   1      30.112  16.388  10.927  0.00  0.00    +0.241 C 
ATOM      8  N   CYS A   2      30.598  17.174  11.879  0.00  0.00    -0.296 N 
ATOM      9  H   CYS A   2      31.158  16.775  12.659  0.00  0.00    +0.150 HD
ATOM     10  O   THR A   1      29.382  16.818  10.037  0.00  0.00    -0.274 OA
BRANCH   7  11
ATOM     11  CA  THR A   1      30.462  14.905  10.963  0.00  0.00    +0.172 C 
BRANCH  11  12
ATOM     12  CB  THR A   1      29.206  14.131  10.526  0.00  0.00    +0.135 C 
ATOM     13  CG2 THR A   1      29.518  12.647  10.347  0.00  0.00    +0.034 C 
BRANCH  12  14
ATOM     14  OG1 THR A   1      28.191  14.280  11.523  0.00  0.00    -0.383 OA
ATOM     15  HG1 THR A   1      28.521  13.920  12.384  0.00  0.00    +0.210 HD
ENDBRANCH  12  14
ENDBRANCH  11  12
BRANCH  11  16
ATOM     16  N   THR A   1      31.041  14.280  12.148  0.00  0.00    -0.236 NA
ATOM     17  H   THR A   1      30.553  14.332  13.065  0.00  0.00    +0.142 HD
ENDBRANCH  11  16
ENDBRANCH   7  11
ENDBRANCH   6   8
BRANCH   6  18
ATOM     18  CB  CYS A   2      30.438  19.252  13.193  0.00  0.00    +0.098 C 
ATOM     19  SG  CYS A   2      28.967  19.021  14.207  0.00  0.00    -0.080 S 
ENDBRANCH   6  18
ENDBRANCH   2   6
ENDBRANCH   1   4
BRANCH   1  20
ATOM     20  C   GLN A   3      33.219  21.300  10.097  0.00  0.00    +0.241 C 
ATOM     21  N   TYR A   4      32.890  21.789  11.288  0.00  0.00    -0.297 N 
ATOM     22  H   TYR A   4      31.886  21.817  11.558  0.00  0.00    +0.150 HD
ATOM     23  O   GLN A   3      34.380  21.227   9.692  0.00  0.00    -0.273 OA
BRANCH  21  24
ATOM     24  CA  TYR A   4      33.883  22.286  12.227  0.00  0.00    +0.153 C 
BRANCH  24  25
ATOM     25  C   TYR A   4      33.890  21.495  13.523  0.00  0.00    +0.241 C 
ATOM     26  O   TYR A   4      32.889  21.439  14.236  0.00  0.00    -0.273 OA
ATOM     27  N   THR A   5      35.023  20.870  13.817  0.00  0.00    -0.296 N 
ATOM     28  H   THR A   5      35.823  20.929  13.155  0.00  0.00    +0.150 HD
BRANCH  27  29
ATOM     29  CA  THR A   5      35.170  20.105  15.043  0.00  0.00    +0.164 C 
BRANCH  29  30
ATOM     30  C   THR A   5      35.376  21.105  16.175  0.00  0.00    +0.229 C 
ATOM     31  O   THR A   5      35.711  22.270  15.929  0.00  0.00    -0.286 OA
ENDBRANCH  29  30
BRANCH  29  32
ATOM     32  CB  THR A   5      36.402  19.186  14.980  0.00  0.00    +0.136 C 
ATOM     33  CG2 THR A   5      36.271  18.197  13.833  0.00  0.00    +0.034 C 
BRANCH  32  34
ATOM     34  OG1 THR A   5      37.579  19.983  14.785  0.00  0.00    -0.382 OA
ATOM     35  HG1 THR A   5      38.373  19.393  14.744  0.00  0.00    +0.210 HD
ENDBRANCH  32  34
ENDBRANCH  29  32
ENDBRANCH  27  29
ENDBRANCH  24  25
BRANCH  24  36
ATOM     36  CB  TYR A   4      33.625  23.762  12.531  0.00  0.00    +0.055 C 
BRANCH  36  37
ATOM     37  CG  TYR A   4      34.108  24.672  11.438  0.00  0.00    -0.020 A 
ATOM     38  CD2 TYR A   4      35.472  24.868  11.235  0.00  0.00    -0.001 A 
ATOM     39  CE2 TYR A   4      35.936  25.664  10.202  0.00  0.00    +0.036 A 
ATOM     40  CZ  TYR A   4      35.034  26.271   9.350  0.00  0.00    +0.134 A 
ATOM     41  CE1 TYR A   4      33.668  26.098   9.530  0.00  0.00    +0.036 A 
ATOM     42  CD1 TYR A   4      33.214  25.297  10.573  0.00  0.00    -0.001 A 
BRANCH  40  43
ATOM     43  OH  TYR A   4      35.509  27.042   8.319  0.00  0.00    -0.506 OA
ATOM     44  HH  TYR A   4      35.165  27.966   8.414  0.00  0.00    +0.292 HD
ENDBRANCH  40  43
ENDBRANCH  36  37
ENDBRANCH  24  36
ENDBRANCH  21  24
ENDBRANCH   1  20
BRANCH   1  45
ATOM     45  CB  GLN A   3      31.466  21.989   8.466  0.00  0.00    +0.039 C 
BRANCH  45  46
ATOM     46  CG  GLN A   3      32.485  22.695   7.583  0.00  0.00    +0.087 C 
BRANCH  46  47
ATOM     47  CD  GLN A   3      31.909  23.890   6.856  0.00  0.00    +0.219 C 
ATOM     48  NE2 GLN A   3      30.593  24.045   6.920  0.00  0.00    -0.329 N 
ATOM     49 HE21 GLN A   3      30.015  23.366   7.455  0.00  0.00    +0.145 HD
ATOM     50 HE22 GLN A   3      30.140  24.846   6.435  0.00  0.00    +0.145 HD
ATOM     51  OE1 GLN A   3      32.640  24.664   6.237  0.00  0.00    -0.275 OA
ENDBRANCH  46  47
ENDBRANCH  45  46
ENDBRANCH   1  45
TORSDOF 21
REMARK  Name = ../refined-set-2016/1nq7/1nq7_pocket.pdb
REMARK  235 active torsions:
REMARK  status: ('A' for Active; 'I' for Inactive)
REMARK    1  A    between atoms: _1  and  _3
REMARK    2  A    between atoms: _3  and  _4
REMARK    3  A    between atoms: _3  and  _6
REMARK    4  A    between atoms: _6  and  _7
REMARK    5  A    between atoms: _12  and  _14
REMARK    6  A    between atoms: _14  and  _15
REMARK    7  A    between atoms: _14  and  _17
REMARK    8  A    between atoms: _17  and  _18
REMARK    9  A    between atoms: _21  and  _23
REMARK   10  A    between atoms: _23  and  _24
REMARK   11  A    between atoms: _23  and  _26
REMARK   12  A    between atoms: _28  and  _30
REMARK   13  A    between atoms: _30  and  _31
REMARK   14  A    between atoms: _30  and  _33
REMARK   15  A    between atoms: _33  and  _34
REMARK   16  A    between atoms: _34  and  _35
REMARK   17  A    between atoms: _40  and  _42
REMARK   18  A    between atoms: _42  and  _43
REMARK   19  A    between atoms: _42  and  _45
REMARK   20  A    between atoms: _45  and  _46
REMARK   21  A    between atoms: _51  and  _52
REMARK   22  A    between atoms: _54  and  _56
REMARK   23  A    between atoms: _56  and  _57
REMARK   24  A    between atoms: _56  and  _59
REMARK   25  A    between atoms: _59  and  _60
REMARK   26  A    between atoms: _63  and  _65
REMARK   27  A    between atoms: _65  and  _66
REMARK   28  A    between atoms: _65  and  _68
REMARK   29  A    between atoms: _68  and  _69
REMARK   30  A    between atoms: _72  and  _74
REMARK   31  A    between atoms: _74  and  _75
REMARK   32  A    between atoms: _74  and  _77
REMARK   33  A    between atoms: _77  and  _78
REMARK   34  A    between atoms: _81  and  _83
REMARK   35  A    between atoms: _83  and  _84
REMARK   36  A    between atoms: _83  and  _86
REMARK   37  A    between atoms: _86  and  _87
REMARK   38  A    between atoms: _97  and  _99
REMARK   39  A    between atoms: _99  and  _100
REMARK   40  A    between atoms: _99  and  _102
REMARK   41  A    between atoms: _102  and  _103
REMARK   42  A    between atoms: _103  and  _104
REMARK   43  A    between atoms: _109  and  _111
REMARK   44  A    between atoms: _111  and  _112
REMARK   45  A    between atoms: _111  and  _114
REMARK   46  A    between atoms: _116  and  _118
REMARK   47  A    between atoms: _118  and  _119
REMARK   48  A    between atoms: _122  and  _124
REMARK   49  A    between atoms: _124  and  _125
REMARK   50  A    between atoms: _124  and  _127
REMARK   51  A    between atoms: _127  and  _128
REMARK   52  A    between atoms: _128  and  _129
REMARK   53  A    between atoms: _134  and  _136
REMARK   54  A    between atoms: _136  and  _137
REMARK   55  A    between atoms: _136  and  _139
REMARK   56  A    between atoms: _139  and  _140
REMARK   57  A    between atoms: _143  and  _145
REMARK   58  A    between atoms: _145  and  _146
REMARK   59  A    between atoms: _145  and  _148
REMARK   60  A    between atoms: _148  and  _149
REMARK   61  A    between atoms: _154  and  _156
REMARK   62  A    between atoms: _156  and  _157
REMARK   63  A    between atoms: _160  and  _162
REMARK   64  A    between atoms: _162  and  _163
REMARK   65  A    between atoms: _162  and  _165
REMARK   66  A    between atoms: _165  and  _166
REMARK   67  A    between atoms: _169  and  _171
REMARK   68  A    between atoms: _171  and  _172
REMARK   69  A    between atoms: _171  and  _174
REMARK   70  A    between atoms: _174  and  _175
REMARK   71  A    between atoms: _180  and  _181
REMARK   72  A    between atoms: _183  and  _185
REMARK   73  A    between atoms: _185  and  _186
REMARK   74  A    between atoms: _185  and  _188
REMARK   75  A    between atoms: _191  and  _193
REMARK   76  A    between atoms: _193  and  _194
REMARK   77  A    between atoms: _193  and  _196
REMARK   78  A    between atoms: _198  and  _200
REMARK   79  A    between atoms: _200  and  _201
REMARK   80  A    between atoms: _200  and  _203
REMARK   81  A    between atoms: _203  and  _204
REMARK   82  A    between atoms: _207  and  _209
REMARK   83  A    between atoms: _209  and  _210
REMARK   84  A    between atoms: _209  and  _212
REMARK   85  A    between atoms: _212  and  _213
REMARK   86  A    between atoms: _213  and  _214
REMARK   87  A    between atoms: _217  and  _219
REMARK   88  A    between atoms: _219  and  _220
REMARK   89  A    between atoms: _219  and  _222
REMARK   90  A    between atoms: _225  and  _227
REMARK   91  A    between atoms: _227  and  _228
REMARK   92  A    between atoms: _227  and  _230
REMARK   93  A    between atoms: _233  and  _235
REMARK   94  A    between atoms: _235  and  _236
REMARK   95  A    between atoms: _235  and  _238
REMARK   96  A    between atoms: _238  and  _239
REMARK   97  A    between atoms: _242  and  _244
REMARK   98  A    between atoms: _244  and  _245
REMARK   99  A    between atoms: _244  and  _247
REMARK  100  A    between atoms: _250  and  _252
REMARK  101  A    between atoms: _252  and  _253
REMARK  102  A    between atoms: _252  and  _255
REMARK  103  A    between atoms: _255  and  _256
REMARK  104  A    between atoms: _256  and  _257
REMARK  105  A    between atoms: _257  and  _258
REMARK  106  A    between atoms: _267  and  _269
REMARK  107  A    between atoms: _269  and  _270
REMARK  108  A    between atoms: _269  and  _272
REMARK  109  A    between atoms: _272  and  _273
REMARK  110  A    between atoms: _273  and  _274
REMARK  111  A    between atoms: _276  and  _278
REMARK  112  A    between atoms: _278  and  _279
REMARK  113  A    between atoms: _278  and  _281
REMARK  114  A    between atoms: _283  and  _285
REMARK  115  A    between atoms: _285  and  _286
REMARK  116  A    between atoms: _285  and  _288
REMARK  117  A    between atoms: _288  and  _289
REMARK  118  A    between atoms: _289  and  _290
REMARK  119  A    between atoms: _290  and  _291
REMARK  120  A    between atoms: _300  and  _302
REMARK  121  A    between atoms: _302  and  _303
REMARK  122  A    between atoms: _306  and  _308
REMARK  123  A    between atoms: _308  and  _309
REMARK  124  A    between atoms: _308  and  _311
REMARK  125  A    between atoms: _311  and  _312
REMARK  126  A    between atoms: _318  and  _320
REMARK  127  A    between atoms: _320  and  _321
REMARK  128  A    between atoms: _320  and  _323
REMARK  129  A    between atoms: _326  and  _328
REMARK  130  A    between atoms: _328  and  _329
REMARK  131  A    between atoms: _328  and  _331
REMARK  132  A    between atoms: _331  and  _332
REMARK  133  A    between atoms: _335  and  _337
REMARK  134  A    between atoms: _337  and  _338
REMARK  135  A    between atoms: _337  and  _340
REMARK  136  A    between atoms: _340  and  _341
REMARK  137  A    between atoms: _347  and  _349
REMARK  138  A    between atoms: _349  and  _350
REMARK  139  A    between atoms: _349  and  _352
REMARK  140  A    between atoms: _352  and  _353
REMARK  141  A    between atoms: _353  and  _354
REMARK  142  A    between atoms: _357  and  _359
REMARK  143  A    between atoms: _359  and  _360
REMARK  144  A    between atoms: _362  and  _364
REMARK  145  A    between atoms: _364  and  _365
REMARK  146  A    between atoms: _367  and  _369
REMARK  147  A    between atoms: _369  and  _370
REMARK  148  A    between atoms: _372  and  _374
REMARK  149  A    between atoms: _374  and  _375
REMARK  150  A    between atoms: _374  and  _377
REMARK  151  A    between atoms: _377  and  _378
REMARK  152  A    between atoms: _378  and  _379
REMARK  153  A    between atoms: _381  and  _383
REMARK  154  A    between atoms: _383  and  _384
REMARK  155  A    between atoms: _383  and  _386
REMARK  156  A    between atoms: _386  and  _387
REMARK  157  A    between atoms: _387  and  _388
REMARK  158  A    between atoms: _390  and  _392
REMARK  159  A    between atoms: _392  and  _393
REMARK  160  A    between atoms: _392  and  _395
REMARK  161  A    between atoms: _395  and  _396
REMARK  162  A    between atoms: _402  and  _404
REMARK  163  A    between atoms: _404  and  _405
REMARK  164  A    between atoms: _404  and  _407
REMARK  165  A    between atoms: _407  and  _408
REMARK  166  A    between atoms: _411  and  _413
REMARK  167  A    between atoms: _413  and  _414
REMARK  168  A    between atoms: _413  and  _416
REMARK  169  A    between atoms: _416  and  _417
REMARK  170  A    between atoms: _419  and  _421
REMARK  171  A    between atoms: _421  and  _422
REMARK  172  A    between atoms: _421  and  _424
REMARK  173  A    between atoms: _424  and  _425
REMARK  174  A    between atoms: _428  and  _430
REMARK  175  A    between atoms: _430  and  _431
REMARK  176  A    between atoms: _430  and  _433
REMARK  177  A    between atoms: _436  and  _438
REMARK  178  A    between atoms: _438  and  _439
REMARK  179  A    between atoms: _438  and  _441
REMARK  180  A    between atoms: _441  and  _442
REMARK  181  A    between atoms: _447  and  _449
REMARK  182  A    between atoms: _449  and  _450
REMARK  183  A    between atoms: _449  and  _452
REMARK  184  A    between atoms: _452  and  _453
REMARK  185  A    between atoms: _453  and  _454
REMARK  186  A    between atoms: _457  and  _459
REMARK  187  A    between atoms: _459  and  _460
REMARK  188  A    between atoms: _463  and  _465
REMARK  189  A    between atoms: _465  and  _466
REMARK  190  A    between atoms: _465  and  _468
REMARK  191  A    between atoms: _468  and  _469
REMARK  192  A    between atoms: _475  and  _477
REMARK  193  A    between atoms: _477  and  _478
REMARK  194  A    between atoms: _477  and  _480
REMARK  195  A    between atoms: _480  and  _481
REMARK  196  A    between atoms: _487  and  _489
REMARK  197  A    between atoms: _489  and  _490
REMARK  198  A    between atoms: _489  and  _492
REMARK  199  A    between atoms: _492  and  _493
REMARK  200  A    between atoms: _496  and  _498
REMARK  201  A    between atoms: _498  and  _499
REMARK  202  A    between atoms: _498  and  _501
REMARK  203  A    between atoms: _504  and  _506
REMARK  204  A    between atoms: _506  and  _507
REMARK  205  A    between atoms: _506  and  _509
REMARK  206  A    between atoms: _511  and  _513
REMARK  207  A    between atoms: _513  and  _514
REMARK  208  A    between atoms: _513  and  _516
REMARK  209  A    between atoms: _516  and  _517
REMARK  210  A    between atoms: _522  and  _524
REMARK  211  A    between atoms: _524  and  _525
REMARK  212  A    between atoms: _524  and  _527
REMARK  213  A    between atoms: _527  and  _528
REMARK  214  A    between atoms: _531  and  _533
REMARK  215  A    between atoms: _533  and  _534
REMARK  216  A    between atoms: _533  and  _536
REMARK  217  A    between atoms: _536  and  _537
REMARK  218  A    between atoms: _542  and  _544
REMARK  219  A    between atoms: _544  and  _545
REMARK  220  A    between atoms: _547  and  _549
REMARK  221  A    between atoms: _549  and  _550
REMARK  222  A    between atoms: _549  and  _552
REMARK  223  A    between atoms: _552  and  _553
REMARK  224  A    between atoms: _553  and  _554
REMARK  225  A    between atoms: _554  and  _555
REMARK  226  A    between atoms: _555  and  _556
REMARK  227  A    between atoms: _560  and  _562
REMARK  228  A    between atoms: _562  and  _563
REMARK  229  A    between atoms: _562  and  _565
REMARK  230  A    between atoms: _565  and  _566
REMARK  231  A    between atoms: _571  and  _572
REMARK  232  A    between atoms: _574  and  _576
REMARK  233  A    between atoms: _576  and  _577
REMARK  234  A    between atoms: _576  and  _579
REMARK  235  A    between atoms: _579  and  _580
REMARK                            x       y       z     vdW  Elec       q    Type
REMARK                         _______ _______ _______ _____ _____    ______ ____
ROOT
ATOM      1  CA  LEU A   1      36.583  26.099  16.691  0.00  0.00    +0.133 C 
ENDROOT
BRANCH   1   2
ATOM      2  N   LEU A   1      37.232  24.911  16.149  0.00  0.00    -0.239 NA
ATOM      3  H   LEU A   1      36.761  23.987  16.222  0.00  0.00    +0.142 HD
ENDBRANCH   1   2
BRANCH   1   4
ATOM      4  C   LEU A   1      37.431  26.683  17.816  0.00  0.00    +0.224 C 
ATOM      5  O   LEU A   1      37.537  27.903  17.961  0.00  0.00    -0.287 OA
ENDBRANCH   1   4
BRANCH   1   6
ATOM      6  CB  LEU A   1      35.178  25.756  17.209  0.00  0.00    +0.025 C 
BRANCH   6   7
ATOM      7  CG  LEU A   1      34.167  25.353  16.127  0.00  0.00    +0.002 C 
ATOM      8  CD2 LEU A   1      32.860  24.913  16.775  0.00  0.00    +0.000 C 
ATOM      9  CD1 LEU A   1      33.936  26.524  15.177  0.00  0.00    +0.000 C 
ENDBRANCH   6   7
ENDBRANCH   1   6
TORSDOF 4
REMARK  Name = ../refined-set-2016/1nq7/1nq7_pocket.pdb
REMARK  235 active torsions:
REMARK  status: ('A' for Active; 'I' for Inactive)
REMARK    1  A    between atoms: _1  and  _3
REMARK    2  A    between atoms: _3  and  _4
REMARK    3  A    between atoms: _3  and  _6
REMARK    4  A    between atoms: _6  and  _7
REMARK    5  A    between atoms: _12  and  _14
REMARK    6  A    between atoms: _14  and  _15
REMARK    7  A    between atoms: _14  and  _17
REMARK    8  A    between atoms: _17  and  _18
REMARK    9  A    between atoms: _21  and  _23
REMARK   10  A    between atoms: _23  and  _24
REMARK   11  A    between atoms: _23  and  _26
REMARK   12  A    between atoms: _28  and  _30
REMARK   13  A    between atoms: _30  and  _31
REMARK   14  A    between atoms: _30  and  _33
REMARK   15  A    between atoms: _33  and  _34
REMARK   16  A    between atoms: _34  and  _35
REMARK   17  A    between atoms: _40  and  _42
REMARK   18  A    between atoms: _42  and  _43
REMARK   19  A    between atoms: _42  and  _45
REMARK   20  A    between atoms: _45  and  _46
REMARK   21  A    between atoms: _51  and  _52
REMARK   22  A    between atoms: _54  and  _56
REMARK   23  A    between atoms: _56  and  _57
REMARK   24  A    between atoms: _56  and  _59
REMARK   25  A    between atoms: _59  and  _60
REMARK   26  A    between atoms: _63  and  _65
REMARK   27  A    between atoms: _65  and  _66
REMARK   28  A    between atoms: _65  and  _68
REMARK   29  A    between atoms: _68  and  _69
REMARK   30  A    between atoms: _72  and  _74
REMARK   31  A    between atoms: _74  and  _75
REMARK   32  A    between atoms: _74  and  _77
REMARK   33  A    between atoms: _77  and  _78
REMARK   34  A    between atoms: _81  and  _83
REMARK   35  A    between atoms: _83  and  _84
REMARK   36  A    between atoms: _83  and  _86
REMARK   37  A    between atoms: _86  and  _87
REMARK   38  A    between atoms: _97  and  _99
REMARK   39  A    between atoms: _99  and  _100
REMARK   40  A    between atoms: _99  and  _102
REMARK   41  A    between atoms: _102  and  _103
REMARK   42  A    between atoms: _103  and  _104
REMARK   43  A    between atoms: _109  and  _111
REMARK   44  A    between atoms: _111  and  _112
REMARK   45  A    between atoms: _111  and  _114
REMARK   46  A    between atoms: _116  and  _118
REMARK   47  A    between atoms: _118  and  _119
REMARK   48  A    between atoms: _122  and  _124
REMARK   49  A    between atoms: _124  and  _125
REMARK   50  A    between atoms: _124  and  _127
REMARK   51  A    between atoms: _127  and  _128
REMARK   52  A    between atoms: _128  and  _129
REMARK   53  A    between atoms: _134  and  _136
REMARK   54  A    between atoms: _136  and  _137
REMARK   55  A    between atoms: _136  and  _139
REMARK   56  A    between atoms: _139  and  _140
REMARK   57  A    between atoms: _143  and  _145
REMARK   58  A    between atoms: _145  and  _146
REMARK   59  A    between atoms: _145  and  _148
REMARK   60  A    between atoms: _148  and  _149
REMARK   61  A    between atoms: _154  and  _156
REMARK   62  A    between atoms: _156  and  _157
REMARK   63  A    between atoms: _160  and  _162
REMARK   64  A    between atoms: _162  and  _163
REMARK   65  A    between atoms: _162  and  _165
REMARK   66  A    between atoms: _165  and  _166
REMARK   67  A    between atoms: _169  and  _171
REMARK   68  A    between atoms: _171  and  _172
REMARK   69  A    between atoms: _171  and  _174
REMARK   70  A    between atoms: _174  and  _175
REMARK   71  A    between atoms: _180  and  _181
REMARK   72  A    between atoms: _183  and  _185
REMARK   73  A    between atoms: _185  and  _186
REMARK   74  A    between atoms: _185  and  _188
REMARK   75  A    between atoms: _191  and  _193
REMARK   76  A    between atoms: _193  and  _194
REMARK   77  A    between atoms: _193  and  _196
REMARK   78  A    between atoms: _198  and  _200
REMARK   79  A    between atoms: _200  and  _201
REMARK   80  A    between atoms: _200  and  _203
REMARK   81  A    between atoms: _203  and  _204
REMARK   82  A    between atoms: _207  and  _209
REMARK   83  A    between atoms: _209  and  _210
REMARK   84  A    between atoms: _209  and  _212
REMARK   85  A    between atoms: _212  and  _213
REMARK   86  A    between atoms: _213  and  _214
REMARK   87  A    between atoms: _217  and  _219
REMARK   88  A    between atoms: _219  and  _220
REMARK   89  A    between atoms: _219  and  _222
REMARK   90  A    between atoms: _225  and  _227
REMARK   91  A    between atoms: _227  and  _228
REMARK   92  A    between atoms: _227  and  _230
REMARK   93  A    between atoms: _233  and  _235
REMARK   94  A    between atoms: _235  and  _236
REMARK   95  A    between atoms: _235  and  _238
REMARK   96  A    between atoms: _238  and  _239
REMARK   97  A    between atoms: _242  and  _244
REMARK   98  A    between atoms: _244  and  _245
REMARK   99  A    between atoms: _244  and  _247
REMARK  100  A    between atoms: _250  and  _252
REMARK  101  A    between atoms: _252  and  _253
REMARK  102  A    between atoms: _252  and  _255
REMARK  103  A    between atoms: _255  and  _256
REMARK  104  A    between atoms: _256  and  _257
REMARK  105  A    between atoms: _257  and  _258
REMARK  106  A    between atoms: _267  and  _269
REMARK  107  A    between atoms: _269  and  _270
REMARK  108  A    between atoms: _269  and  _272
REMARK  109  A    between atoms: _272  and  _273
REMARK  110  A    between atoms: _273  and  _274
REMARK  111  A    between atoms: _276  and  _278
REMARK  112  A    between atoms: _278  and  _279
REMARK  113  A    between atoms: _278  and  _281
REMARK  114  A    between atoms: _283  and  _285
REMARK  115  A    between atoms: _285  and  _286
REMARK  116  A    between atoms: _285  and  _288
REMARK  117  A    between atoms: _288  and  _289
REMARK  118  A    between atoms: _289  and  _290
REMARK  119  A    between atoms: _290  and  _291
REMARK  120  A    between atoms: _300  and  _302
REMARK  121  A    between atoms: _302  and  _303
REMARK  122  A    between atoms: _306  and  _308
REMARK  123  A    between atoms: _308  and  _309
REMARK  124  A    between atoms: _308  and  _311
REMARK  125  A    between atoms: _311  and  _312
REMARK  126  A    between atoms: _318  and  _320
REMARK  127  A    between atoms: _320  and  _321
REMARK  128  A    between atoms: _320  and  _323
REMARK  129  A    between atoms: _326  and  _328
REMARK  130  A    between atoms: _328  and  _329
REMARK  131  A    between atoms: _328  and  _331
REMARK  132  A    between atoms: _331  and  _332
REMARK  133  A    between atoms: _335  and  _337
REMARK  134  A    between atoms: _337  and  _338
REMARK  135  A    between atoms: _337  and  _340
REMARK  136  A    between atoms: _340  and  _341
REMARK  137  A    between atoms: _347  and  _349
REMARK  138  A    between atoms: _349  and  _350
REMARK  139  A    between atoms: _349  and  _352
REMARK  140  A    between atoms: _352  and  _353
REMARK  141  A    between atoms: _353  and  _354
REMARK  142  A    between atoms: _357  and  _359
REMARK  143  A    between atoms: _359  and  _360
REMARK  144  A    between atoms: _362  and  _364
REMARK  145  A    between atoms: _364  and  _365
REMARK  146  A    between atoms: _367  and  _369
REMARK  147  A    between atoms: _369  and  _370
REMARK  148  A    between atoms: _372  and  _374
REMARK  149  A    between atoms: _374  and  _375
REMARK  150  A    between atoms: _374  and  _377
REMARK  151  A    between atoms: _377  and  _378
REMARK  152  A    between atoms: _378  and  _379
REMARK  153  A    between atoms: _381  and  _383
REMARK  154  A    between atoms: _383  and  _384
REMARK  155  A    between atoms: _383  and  _386
REMARK  156  A    between atoms: _386  and  _387
REMARK  157  A    between atoms: _387  and  _388
REMARK  158  A    between atoms: _390  and  _392
REMARK  159  A    between atoms: _392  and  _393
REMARK  160  A    between atoms: _392  and  _395
REMARK  161  A    between atoms: _395  and  _396
REMARK  162  A    between atoms: _402  and  _404
REMARK  163  A    between atoms: _404  and  _405
REMARK  164  A    between atoms: _404  and  _407
REMARK  165  A    between atoms: _407  and  _408
REMARK  166  A    between atoms: _411  and  _413
REMARK  167  A    between atoms: _413  and  _414
REMARK  168  A    between atoms: _413  and  _416
REMARK  169  A    between atoms: _416  and  _417
REMARK  170  A    between atoms: _419  and  _421
REMARK  171  A    between atoms: _421  and  _422
REMARK  172  A    between atoms: _421  and  _424
REMARK  173  A    between atoms: _424  and  _425
REMARK  174  A    between atoms: _428  and  _430
REMARK  175  A    between atoms: _430  and  _431
REMARK  176  A    between atoms: _430  and  _433
REMARK  177  A    between atoms: _436  and  _438
REMARK  178  A    between atoms: _438  and  _439
REMARK  179  A    between atoms: _438  and  _441
REMARK  180  A    between atoms: _441  and  _442
REMARK  181  A    between atoms: _447  and  _449
REMARK  182  A    between atoms: _449  and  _450
REMARK  183  A    between atoms: _449  and  _452
REMARK  184  A    between atoms: _452  and  _453
REMARK  185  A    between atoms: _453  and  _454
REMARK  186  A    between atoms: _457  and  _459
REMARK  187  A    between atoms: _459  and  _460
REMARK  188  A    between atoms: _463  and  _465
REMARK  189  A    between atoms: _465  and  _466
REMARK  190  A    between atoms: _465  and  _468
REMARK  191  A    between atoms: _468  and  _469
REMARK  192  A    between atoms: _475  and  _477
REMARK  193  A    between atoms: _477  and  _478
REMARK  194  A    between atoms: _477  and  _480
REMARK  195  A    between atoms: _480  and  _481
REMARK  196  A    between atoms: _487  and  _489
REMARK  197  A    between atoms: _489  and  _490
REMARK  198  A    between atoms: _489  and  _492
REMARK  199  A    between atoms: _492  and  _493
REMARK  200  A    between atoms: _496  and  _498
REMARK  201  A    between atoms: _498  and  _499
REMARK  202  A    between atoms: _498  and  _501
REMARK  203  A    between atoms: _504  and  _506
REMARK  204  A    between atoms: _506  and  _507
REMARK  205  A    between atoms: _506  and  _509
REMARK  206  A    between atoms: _511  and  _513
REMARK  207  A    between atoms: _513  and  _514
REMARK  208  A    between atoms: _513  and  _516
REMARK  209  A    between atoms: _516  and  _517
REMARK  210  A    between atoms: _522  and  _524
REMARK  211  A    between atoms: _524  and  _525
REMARK  212  A    between atoms: _524  and  _527
REMARK  213  A    between atoms: _527  and  _528
REMARK  214  A    between atoms: _531  and  _533
REMARK  215  A    between atoms: _533  and  _534
REMARK  216  A    between atoms: _533  and  _536
REMARK  217  A    between atoms: _536  and  _537
REMARK  218  A    between atoms: _542  and  _544
REMARK  219  A    between atoms: _544  and  _545
REMARK  220  A    between atoms: _547  and  _549
REMARK  221  A    between atoms: _549  and  _550
REMARK  222  A    between atoms: _549  and  _552
REMARK  223  A    between atoms: _552  and  _553
REMARK  224  A    between atoms: _553  and  _554
REMARK  225  A    between atoms: _554  and  _555
REMARK  226  A    between atoms: _555  and  _556
REMARK  227  A    between atoms: _560  and  _562
REMARK  228  A    between atoms: _562  and  _563
REMARK  229  A    between atoms: _562  and  _565
REMARK  230  A    between atoms: _565  and  _566
REMARK  231  A    between atoms: _571  and  _572
REMARK  232  A    between atoms: _574  and  _576
REMARK  233  A    between atoms: _576  and  _577
REMARK  234  A    between atoms: _576  and  _579
REMARK  235  A    between atoms: _579  and  _580
REMARK                            x       y       z     vdW  Elec       q    Type
REMARK                         _______ _______ _______ _____ _____    ______ ____
ROOT
ATOM      1  CA  TRP A   2      24.772  34.655  -3.018  0.00  0.00    +0.141 C 
ENDROOT
BRANCH   1   4
ATOM      2  C   LEU A   1      26.842  35.752  -2.426  0.00  0.00    +0.238 C 
ATOM      3  O   LEU A   1      27.090  34.878  -1.594  0.00  0.00    -0.274 OA
ATOM      4  N   TRP A   2      25.736  35.741  -3.166  0.00  0.00    -0.298 N 
ATOM      5  H   TRP A   2      25.559  36.505  -3.849  0.00  0.00    +0.150 HD
BRANCH   2   6
ATOM      6  CA  LEU A   1      27.825  36.899  -2.646  0.00  0.00    +0.145 C 
BRANCH   6   7
ATOM      7  N   LEU A   1      27.870  37.294  -4.047  0.00  0.00    -0.238 NA
ATOM      8  H   LEU A   1      27.485  38.213  -4.344  0.00  0.00    +0.142 HD
ENDBRANCH   6   7
BRANCH   6   9
ATOM      9  CB  LEU A   1      27.473  38.088  -1.738  0.00  0.00    +0.026 C 
BRANCH   9  10
ATOM     10  CG  LEU A   1      27.596  37.788  -0.236  0.00  0.00    +0.002 C 
ATOM     11  CD2 LEU A   1      27.277  39.040   0.566  0.00  0.00    +0.000 C 
ATOM     12  CD1 LEU A   1      29.001  37.297   0.085  0.00  0.00    +0.000 C 
ENDBRANCH   9  10
ENDBRANCH   6   9
ENDBRANCH   2   6
ENDBRANCH   1   4
BRANCH   1  13
ATOM     13  C   TRP A   2      25.427  33.333  -3.406  0.00  0.00    +0.227 C 
ATOM     14  O   TRP A   2      25.196  32.310  -2.765  0.00  0.00    -0.286 OA
ENDBRANCH   1  13
BRANCH   1  15
ATOM     15  CB  TRP A   2      23.537  34.886  -3.896  0.00  0.00    +0.056 C 
BRANCH  15  16
ATOM     16  CG  TRP A   2      22.354  35.371  -3.127  0.00  0.00    -0.002 A 
ATOM     17  CD2 TRP A   2      21.415  34.564  -2.409  0.00  0.00    +0.013 A 
ATOM     18  CE2 TRP A   2      20.480  35.442  -1.813  0.00  0.00    +0.056 A 
ATOM     19  CZ2 TRP A   2      19.412  34.983  -1.034  0.00  0.00    +0.017 A 
ATOM     20  CH2 TRP A   2      19.301  33.628  -0.845  0.00  0.00    +0.001 A 
ATOM     21  CZ3 TRP A   2      20.216  32.729  -1.422  0.00  0.00    +0.000 A 
ATOM     22  NE1 TRP A   2      20.834  36.718  -2.164  0.00  0.00    -0.352 N 
ATOM     23  HE1 TRP A   2      20.332  37.584  -1.881  0.00  0.00    +0.166 HD
ATOM     24  CE3 TRP A   2      21.278  33.186  -2.198  0.00  0.00    +0.001 A 
ATOM     25  CD1 TRP A   2      21.960  36.668  -2.950  0.00  0.00    +0.068 A 
ENDBRANCH  15  16
ENDBRANCH   1  15
TORSDOF 8
REMARK  Name = ../refined-set-2016/1nq7/1nq7_pocket.pdb
REMARK  235 active torsions:
REMARK  status: ('A' for Active; 'I' for Inactive)
REMARK    1  A    between atoms: _1  and  _3
REMARK    2  A    between atoms: _3  and  _4
REMARK    3  A    between atoms: _3  and  _6
REMARK    4  A    between atoms: _6  and  _7
REMARK    5  A    between atoms: _12  and  _14
REMARK    6  A    between atoms: _14  and  _15
REMARK    7  A    between atoms: _14  and  _17
REMARK    8  A    between atoms: _17  and  _18
REMARK    9  A    between atoms: _21  and  _23
REMARK   10  A    between atoms: _23  and  _24
REMARK   11  A    between atoms: _23  and  _26
REMARK   12  A    between atoms: _28  and  _30
REMARK   13  A    between atoms: _30  and  _31
REMARK   14  A    between atoms: _30  and  _33
REMARK   15  A    between atoms: _33  and  _34
REMARK   16  A    between atoms: _34  and  _35
REMARK   17  A    between atoms: _40  and  _42
REMARK   18  A    between atoms: _42  and  _43
REMARK   19  A    between atoms: _42  and  _45
REMARK   20  A    between atoms: _45  and  _46
REMARK   21  A    between atoms: _51  and  _52
REMARK   22  A    between atoms: _54  and  _56
REMARK   23  A    between atoms: _56  and  _57
REMARK   24  A    between atoms: _56  and  _59
REMARK   25  A    between atoms: _59  and  _60
REMARK   26  A    between atoms: _63  and  _65
REMARK   27  A    between atoms: _65  and  _66
REMARK   28  A    between atoms: _65  and  _68
REMARK   29  A    between atoms: _68  and  _69
REMARK   30  A    between atoms: _72  and  _74
REMARK   31  A    between atoms: _74  and  _75
REMARK   32  A    between atoms: _74  and  _77
REMARK   33  A    between atoms: _77  and  _78
REMARK   34  A    between atoms: _81  and  _83
REMARK   35  A    between atoms: _83  and  _84
REMARK   36  A    between atoms: _83  and  _86
REMARK   37  A    between atoms: _86  and  _87
REMARK   38  A    between atoms: _97  and  _99
REMARK   39  A    between atoms: _99  and  _100
REMARK   40  A    between atoms: _99  and  _102
REMARK   41  A    between atoms: _102  and  _103
REMARK   42  A    between atoms: _103  and  _104
REMARK   43  A    between atoms: _109  and  _111
REMARK   44  A    between atoms: _111  and  _112
REMARK   45  A    between atoms: _111  and  _114
REMARK   46  A    between atoms: _116  and  _118
REMARK   47  A    between atoms: _118  and  _119
REMARK   48  A    between atoms: _122  and  _124
REMARK   49  A    between atoms: _124  and  _125
REMARK   50  A    between atoms: _124  and  _127
REMARK   51  A    between atoms: _127  and  _128
REMARK   52  A    between atoms: _128  and  _129
REMARK   53  A    between atoms: _134  and  _136
REMARK   54  A    between atoms: _136  and  _137
REMARK   55  A    between atoms: _136  and  _139
REMARK   56  A    between atoms: _139  and  _140
REMARK   57  A    between atoms: _143  and  _145
REMARK   58  A    between atoms: _145  and  _146
REMARK   59  A    between atoms: _145  and  _148
REMARK   60  A    between atoms: _148  and  _149
REMARK   61  A    between atoms: _154  and  _156
REMARK   62  A    between atoms: _156  and  _157
REMARK   63  A    between atoms: _160  and  _162
REMARK   64  A    between atoms: _162  and  _163
REMARK   65  A    between atoms: _162  and  _165
REMARK   66  A    between atoms: _165  and  _166
REMARK   67  A    between atoms: _169  and  _171
REMARK   68  A    between atoms: _171  and  _172
REMARK   69  A    between atoms: _171  and  _174
REMARK   70  A    between atoms: _174  and  _175
REMARK   71  A    between atoms: _180  and  _181
REMARK   72  A    between atoms: _183  and  _185
REMARK   73  A    between atoms: _185  and  _186
REMARK   74  A    between atoms: _185  and  _188
REMARK   75  A    between atoms: _191  and  _193
REMARK   76  A    between atoms: _193  and  _194
REMARK   77  A    between atoms: _193  and  _196
REMARK   78  A    between atoms: _198  and  _200
REMARK   79  A    between atoms: _200  and  _201
REMARK   80  A    between atoms: _200  and  _203
REMARK   81  A    between atoms: _203  and  _204
REMARK   82  A    between atoms: _207  and  _209
REMARK   83  A    between atoms: _209  and  _210
REMARK   84  A    between atoms: _209  and  _212
REMARK   85  A    between atoms: _212  and  _213
REMARK   86  A    between atoms: _213  and  _214
REMARK   87  A    between atoms: _217  and  _219
REMARK   88  A    between atoms: _219  and  _220
REMARK   89  A    between atoms: _219  and  _222
REMARK   90  A    between atoms: _225  and  _227
REMARK   91  A    between atoms: _227  and  _228
REMARK   92  A    between atoms: _227  and  _230
REMARK   93  A    between atoms: _233  and  _235
REMARK   94  A    between atoms: _235  and  _236
REMARK   95  A    between atoms: _235  and  _238
REMARK   96  A    between atoms: _238  and  _239
REMARK   97  A    between atoms: _242  and  _244
REMARK   98  A    between atoms: _244  and  _245
REMARK   99  A    between atoms: _244  and  _247
REMARK  100  A    between atoms: _250  and  _252
REMARK  101  A    between atoms: _252  and  _253
REMARK  102  A    between atoms: _252  and  _255
REMARK  103  A    between atoms: _255  and  _256
REMARK  104  A    between atoms: _256  and  _257
REMARK  105  A    between atoms: _257  and  _258
REMARK  106  A    between atoms: _267  and  _269
REMARK  107  A    between atoms: _269  and  _270
REMARK  108  A    between atoms: _269  and  _272
REMARK  109  A    between atoms: _272  and  _273
REMARK  110  A    between atoms: _273  and  _274
REMARK  111  A    between atoms: _276  and  _278
REMARK  112  A    between atoms: _278  and  _279
REMARK  113  A    between atoms: _278  and  _281
REMARK  114  A    between atoms: _283  and  _285
REMARK  115  A    between atoms: _285  and  _286
REMARK  116  A    between atoms: _285  and  _288
REMARK  117  A    between atoms: _288  and  _289
REMARK  118  A    between atoms: _289  and  _290
REMARK  119  A    between atoms: _290  and  _291
REMARK  120  A    between atoms: _300  and  _302
REMARK  121  A    between atoms: _302  and  _303
REMARK  122  A    between atoms: _306  and  _308
REMARK  123  A    between atoms: _308  and  _309
REMARK  124  A    between atoms: _308  and  _311
REMARK  125  A    between atoms: _311  and  _312
REMARK  126  A    between atoms: _318  and  _320
REMARK  127  A    between atoms: _320  and  _321
REMARK  128  A    between atoms: _320  and  _323
REMARK  129  A    between atoms: _326  and  _328
REMARK  130  A    between atoms: _328  and  _329
REMARK  131  A    between atoms: _328  and  _331
REMARK  132  A    between atoms: _331  and  _332
REMARK  133  A    between atoms: _335  and  _337
REMARK  134  A    between atoms: _337  and  _338
REMARK  135  A    between atoms: _337  and  _340
REMARK  136  A    between atoms: _340  and  _341
REMARK  137  A    between atoms: _347  and  _349
REMARK  138  A    between atoms: _349  and  _350
REMARK  139  A    between atoms: _349  and  _352
REMARK  140  A    between atoms: _352  and  _353
REMARK  141  A    between atoms: _353  and  _354
REMARK  142  A    between atoms: _357  and  _359
REMARK  143  A    between atoms: _359  and  _360
REMARK  144  A    between atoms: _362  and  _364
REMARK  145  A    between atoms: _364  and  _365
REMARK  146  A    between atoms: _367  and  _369
REMARK  147  A    between atoms: _369  and  _370
REMARK  148  A    between atoms: _372  and  _374
REMARK  149  A    between atoms: _374  and  _375
REMARK  150  A    between atoms: _374  and  _377
REMARK  151  A    between atoms: _377  and  _378
REMARK  152  A    between atoms: _378  and  _379
REMARK  153  A    between atoms: _381  and  _383
REMARK  154  A    between atoms: _383  and  _384
REMARK  155  A    between atoms: _383  and  _386
REMARK  156  A    between atoms: _386  and  _387
REMARK  157  A    between atoms: _387  and  _388
REMARK  158  A    between atoms: _390  and  _392
REMARK  159  A    between atoms: _392  and  _393
REMARK  160  A    between atoms: _392  and  _395
REMARK  161  A    between atoms: _395  and  _396
REMARK  162  A    between atoms: _402  and  _404
REMARK  163  A    between atoms: _404  and  _405
REMARK  164  A    between atoms: _404  and  _407
REMARK  165  A    between atoms: _407  and  _408
REMARK  166  A    between atoms: _411  and  _413
REMARK  167  A    between atoms: _413  and  _414
REMARK  168  A    between atoms: _413  and  _416
REMARK  169  A    between atoms: _416  and  _417
REMARK  170  A    between atoms: _419  and  _421
REMARK  171  A    between atoms: _421  and  _422
REMARK  172  A    between atoms: _421  and  _424
REMARK  173  A    between atoms: _424  and  _425
REMARK  174  A    between atoms: _428  and  _430
REMARK  175  A    between atoms: _430  and  _431
REMARK  176  A    between atoms: _430  and  _433
REMARK  177  A    between atoms: _436  and  _438
REMARK  178  A    between atoms: _438  and  _439
REMARK  179  A    between atoms: _438  and  _441
REMARK  180  A    between atoms: _441  and  _442
REMARK  181  A    between atoms: _447  and  _449
REMARK  182  A    between atoms: _449  and  _450
REMARK  183  A    between atoms: _449  and  _452
REMARK  184  A    between atoms: _452  and  _453
REMARK  185  A    between atoms: _453  and  _454
REMARK  186  A    between atoms: _457  and  _459
REMARK  187  A    between atoms: _459  and  _460
REMARK  188  A    between atoms: _463  and  _465
REMARK  189  A    between atoms: _465  and  _466
REMARK  190  A    between atoms: _465  and  _468
REMARK  191  A    between atoms: _468  and  _469
REMARK  192  A    between atoms: _475  and  _477
REMARK  193  A    between atoms: _477  and  _478
REMARK  194  A    between atoms: _477  and  _480
REMARK  195  A    between atoms: _480  and  _481
REMARK  196  A    between atoms: _487  and  _489
REMARK  197  A    between atoms: _489  and  _490
REMARK  198  A    between atoms: _489  and  _492
REMARK  199  A    between atoms: _492  and  _493
REMARK  200  A    between atoms: _496  and  _498
REMARK  201  A    between atoms: _498  and  _499
REMARK  202  A    between atoms: _498  and  _501
REMARK  203  A    between atoms: _504  and  _506
REMARK  204  A    between atoms: _506  and  _507
REMARK  205  A    between atoms: _506  and  _509
REMARK  206  A    between atoms: _511  and  _513
REMARK  207  A    between atoms: _513  and  _514
REMARK  208  A    between atoms: _513  and  _516
REMARK  209  A    between atoms: _516  and  _517
REMARK  210  A    between atoms: _522  and  _524
REMARK  211  A    between atoms: _524  and  _525
REMARK  212  A    between atoms: _524  and  _527
REMARK  213  A    between atoms: _527  and  _528
REMARK  214  A    between atoms: _531  and  _533
REMARK  215  A    between atoms: _533  and  _534
REMARK  216  A    between atoms: _533  and  _536
REMARK  217  A    between atoms: _536  and  _537
REMARK  218  A    between atoms: _542  and  _544
REMARK  219  A    between atoms: _544  and  _545
REMARK  220  A    between atoms: _547  and  _549
REMARK  221  A    between atoms: _549  and  _550
REMARK  222  A    between atoms: _549  and  _552
REMARK  223  A    between atoms: _552  and  _553
REMARK  224  A    between atoms: _553  and  _554
REMARK  225  A    between atoms: _554  and  _555
REMARK  226  A    between atoms: _555  and  _556
REMARK  227  A    between atoms: _560  and  _562
REMARK  228  A    between atoms: _562  and  _563
REMARK  229  A    between atoms: _562  and  _565
REMARK  230  A    between atoms: _565  and  _566
REMARK  231  A    between atoms: _571  and  _572
REMARK  232  A    between atoms: _574  and  _576
REMARK  233  A    between atoms: _576  and  _577
REMARK  234  A    between atoms: _576  and  _579
REMARK  235  A    between atoms: _579  and  _580
REMARK                            x       y       z     vdW  Elec       q    Type
REMARK                         _______ _______ _______ _____ _____    ______ ____
ROOT
ATOM      1  C   GLN A   1      28.735  31.588  -0.913  0.00  0.00    +0.238 C 
ATOM      2  O   GLN A   1      29.175  30.620  -0.284  0.00  0.00    -0.274 OA
ATOM      3  N   CYS A   2      27.591  32.188  -0.591  0.00  0.00    -0.297 N 
ATOM      4  H   CYS A   2      27.268  33.010  -1.140  0.00  0.00    +0.150 HD
ENDROOT
BRANCH   1   5
ATOM      5  CA  GLN A   1      29.508  32.167  -2.096  0.00  0.00    +0.145 C 
BRANCH   5   6
ATOM      6  N   GLN A   1      28.610  32.551  -3.184  0.00  0.00    -0.238 NA
ATOM      7  H   GLN A   1      28.564  33.547  -3.481  0.00  0.00    +0.142 HD
ENDBRANCH   5   6
BRANCH   5   8
ATOM      8  CB  GLN A   1      30.317  33.374  -1.634  0.00  0.00    +0.036 C 
BRANCH   8   9
ATOM      9  CG  GLN A   1      31.418  33.789  -2.596  0.00  0.00    +0.087 C 
BRANCH   9  10
ATOM     10  CD  GLN A   1      32.110  35.067  -2.162  0.00  0.00    +0.219 C 
ATOM     11  NE2 GLN A   1      33.002  34.955  -1.184  0.00  0.00    -0.329 N 
ATOM     12 HE21 GLN A   1      33.204  34.023  -0.768  0.00  0.00    +0.145 HD
ATOM     13 HE22 GLN A   1      33.499  35.799  -0.834  0.00  0.00    +0.145 HD
ATOM     14  OE1 GLN A   1      31.834  36.147  -2.689  0.00  0.00    -0.275 OA
ENDBRANCH   9  10
ENDBRANCH   8   9
ENDBRANCH   5   8
ENDBRANCH   1   5
BRANCH   3  15
ATOM     15  CA  CYS A   2      26.789  31.706   0.520  0.00  0.00    +0.160 C 
BRANCH  15  16
ATOM     16  C   CYS A   2      26.203  30.336   0.202  0.00  0.00    +0.242 C 
ATOM     17  O   CYS A   2      26.162  29.462   1.071  0.00  0.00    -0.273 OA
ATOM     18  N   ALA A   3      25.769  30.141  -1.040  0.00  0.00    -0.298 N 
ATOM     19  H   ALA A   3      25.837  30.913  -1.734  0.00  0.00    +0.150 HD
BRANCH  18  20
ATOM     20  CA  ALA A   3      25.197  28.857  -1.444  0.00  0.00    +0.137 C 
ATOM     21  CB  ALA A   3      24.692  28.930  -2.877  0.00  0.00    +0.030 C 
BRANCH  20  22
ATOM     22  C   ALA A   3      26.250  27.760  -1.305  0.00  0.00    +0.227 C 
ATOM     23  O   ALA A   3      25.940  26.635  -0.904  0.00  0.00    -0.286 OA
ENDBRANCH  20  22
ENDBRANCH  18  20
ENDBRANCH  15  16
BRANCH  15  24
ATOM     24  CB  CYS A   2      25.682  32.710   0.847  0.00  0.00    +0.098 C 
ATOM     25  SG  CYS A   2      26.306  34.231   1.604  0.00  0.00    -0.080 S 
ENDBRANCH  15  24
ENDBRANCH   3  15
TORSDOF 10
REMARK  Name = ../refined-set-2016/1nq7/1nq7_pocket.pdb
REMARK  235 active torsions:
REMARK  status: ('A' for Active; 'I' for Inactive)
REMARK    1  A    between atoms: _1  and  _3
REMARK    2  A    between atoms: _3  and  _4
REMARK    3  A    between atoms: _3  and  _6
REMARK    4  A    between atoms: _6  and  _7
REMARK    5  A    between atoms: _12  and  _14
REMARK    6  A    between atoms: _14  and  _15
REMARK    7  A    between atoms: _14  and  _17
REMARK    8  A    between atoms: _17  and  _18
REMARK    9  A    between atoms: _21  and  _23
REMARK   10  A    between atoms: _23  and  _24
REMARK   11  A    between atoms: _23  and  _26
REMARK   12  A    between atoms: _28  and  _30
REMARK   13  A    between atoms: _30  and  _31
REMARK   14  A    between atoms: _30  and  _33
REMARK   15  A    between atoms: _33  and  _34
REMARK   16  A    between atoms: _34  and  _35
REMARK   17  A    between atoms: _40  and  _42
REMARK   18  A    between atoms: _42  and  _43
REMARK   19  A    between atoms: _42  and  _45
REMARK   20  A    between atoms: _45  and  _46
REMARK   21  A    between atoms: _51  and  _52
REMARK   22  A    between atoms: _54  and  _56
REMARK   23  A    between atoms: _56  and  _57
REMARK   24  A    between atoms: _56  and  _59
REMARK   25  A    between atoms: _59  and  _60
REMARK   26  A    between atoms: _63  and  _65
REMARK   27  A    between atoms: _65  and  _66
REMARK   28  A    between atoms: _65  and  _68
REMARK   29  A    between atoms: _68  and  _69
REMARK   30  A    between atoms: _72  and  _74
REMARK   31  A    between atoms: _74  and  _75
REMARK   32  A    between atoms: _74  and  _77
REMARK   33  A    between atoms: _77  and  _78
REMARK   34  A    between atoms: _81  and  _83
REMARK   35  A    between atoms: _83  and  _84
REMARK   36  A    between atoms: _83  and  _86
REMARK   37  A    between atoms: _86  and  _87
REMARK   38  A    between atoms: _97  and  _99
REMARK   39  A    between atoms: _99  and  _100
REMARK   40  A    between atoms: _99  and  _102
REMARK   41  A    between atoms: _102  and  _103
REMARK   42  A    between atoms: _103  and  _104
REMARK   43  A    between atoms: _109  and  _111
REMARK   44  A    between atoms: _111  and  _112
REMARK   45  A    between atoms: _111  and  _114
REMARK   46  A    between atoms: _116  and  _118
REMARK   47  A    between atoms: _118  and  _119
REMARK   48  A    between atoms: _122  and  _124
REMARK   49  A    between atoms: _124  and  _125
REMARK   50  A    between atoms: _124  and  _127
REMARK   51  A    between atoms: _127  and  _128
REMARK   52  A    between atoms: _128  and  _129
REMARK   53  A    between atoms: _134  and  _136
REMARK   54  A    between atoms: _136  and  _137
REMARK   55  A    between atoms: _136  and  _139
REMARK   56  A    between atoms: _139  and  _140
REMARK   57  A    between atoms: _143  and  _145
REMARK   58  A    between atoms: _145  and  _146
REMARK   59  A    between atoms: _145  and  _148
REMARK   60  A    between atoms: _148  and  _149
REMARK   61  A    between atoms: _154  and  _156
REMARK   62  A    between atoms: _156  and  _157
REMARK   63  A    between atoms: _160  and  _162
REMARK   64  A    between atoms: _162  and  _163
REMARK   65  A    between atoms: _162  and  _165
REMARK   66  A    between atoms: _165  and  _166
REMARK   67  A    between atoms: _169  and  _171
REMARK   68  A    between atoms: _171  and  _172
REMARK   69  A    between atoms: _171  and  _174
REMARK   70  A    between atoms: _174  and  _175
REMARK   71  A    between atoms: _180  and  _181
REMARK   72  A    between atoms: _183  and  _185
REMARK   73  A    between atoms: _185  and  _186
REMARK   74  A    between atoms: _185  and  _188
REMARK   75  A    between atoms: _191  and  _193
REMARK   76  A    between atoms: _193  and  _194
REMARK   77  A    between atoms: _193  and  _196
REMARK   78  A    between atoms: _198  and  _200
REMARK   79  A    between atoms: _200  and  _201
REMARK   80  A    between atoms: _200  and  _203
REMARK   81  A    between atoms: _203  and  _204
REMARK   82  A    between atoms: _207  and  _209
REMARK   83  A    between atoms: _209  and  _210
REMARK   84  A    between atoms: _209  and  _212
REMARK   85  A    between atoms: _212  and  _213
REMARK   86  A    between atoms: _213  and  _214
REMARK   87  A    between atoms: _217  and  _219
REMARK   88  A    between atoms: _219  and  _220
REMARK   89  A    between atoms: _219  and  _222
REMARK   90  A    between atoms: _225  and  _227
REMARK   91  A    between atoms: _227  and  _228
REMARK   92  A    between atoms: _227  and  _230
REMARK   93  A    between atoms: _233  and  _235
REMARK   94  A    between atoms: _235  and  _236
REMARK   95  A    between atoms: _235  and  _238
REMARK   96  A    between atoms: _238  and  _239
REMARK   97  A    between atoms: _242  and  _244
REMARK   98  A    between atoms: _244  and  _245
REMARK   99  A    between atoms: _244  and  _247
REMARK  100  A    between atoms: _250  and  _252
REMARK  101  A    between atoms: _252  and  _253
REMARK  102  A    between atoms: _252  and  _255
REMARK  103  A    between atoms: _255  and  _256
REMARK  104  A    between atoms: _256  and  _257
REMARK  105  A    between atoms: _257  and  _258
REMARK  106  A    between atoms: _267  and  _269
REMARK  107  A    between atoms: _269  and  _270
REMARK  108  A    between atoms: _269  and  _272
REMARK  109  A    between atoms: _272  and  _273
REMARK  110  A    between atoms: _273  and  _274
REMARK  111  A    between atoms: _276  and  _278
REMARK  112  A    between atoms: _278  and  _279
REMARK  113  A    between atoms: _278  and  _281
REMARK  114  A    between atoms: _283  and  _285
REMARK  115  A    between atoms: _285  and  _286
REMARK  116  A    between atoms: _285  and  _288
REMARK  117  A    between atoms: _288  and  _289
REMARK  118  A    between atoms: _289  and  _290
REMARK  119  A    between atoms: _290  and  _291
REMARK  120  A    between atoms: _300  and  _302
REMARK  121  A    between atoms: _302  and  _303
REMARK  122  A    between atoms: _306  and  _308
REMARK  123  A    between atoms: _308  and  _309
REMARK  124  A    between atoms: _308  and  _311
REMARK  125  A    between atoms: _311  and  _312
REMARK  126  A    between atoms: _318  and  _320
REMARK  127  A    between atoms: _320  and  _321
REMARK  128  A    between atoms: _320  and  _323
REMARK  129  A    between atoms: _326  and  _328
REMARK  130  A    between atoms: _328  and  _329
REMARK  131  A    between atoms: _328  and  _331
REMARK  132  A    between atoms: _331  and  _332
REMARK  133  A    between atoms: _335  and  _337
REMARK  134  A    between atoms: _337  and  _338
REMARK  135  A    between atoms: _337  and  _340
REMARK  136  A    between atoms: _340  and  _341
REMARK  137  A    between atoms: _347  and  _349
REMARK  138  A    between atoms: _349  and  _350
REMARK  139  A    between atoms: _349  and  _352
REMARK  140  A    between atoms: _352  and  _353
REMARK  141  A    between atoms: _353  and  _354
REMARK  142  A    between atoms: _357  and  _359
REMARK  143  A    between atoms: _359  and  _360
REMARK  144  A    between atoms: _362  and  _364
REMARK  145  A    between atoms: _364  and  _365
REMARK  146  A    between atoms: _367  and  _369
REMARK  147  A    between atoms: _369  and  _370
REMARK  148  A    between atoms: _372  and  _374
REMARK  149  A    between atoms: _374  and  _375
REMARK  150  A    between atoms: _374  and  _377
REMARK  151  A    between atoms: _377  and  _378
REMARK  152  A    between atoms: _378  and  _379
REMARK  153  A    between atoms: _381  and  _383
REMARK  154  A    between atoms: _383  and  _384
REMARK  155  A    between atoms: _383  and  _386
REMARK  156  A    between atoms: _386  and  _387
REMARK  157  A    between atoms: _387  and  _388
REMARK  158  A    between atoms: _390  and  _392
REMARK  159  A    between atoms: _392  and  _393
REMARK  160  A    between atoms: _392  and  _395
REMARK  161  A    between atoms: _395  and  _396
REMARK  162  A    between atoms: _402  and  _404
REMARK  163  A    between atoms: _404  and  _405
REMARK  164  A    between atoms: _404  and  _407
REMARK  165  A    between atoms: _407  and  _408
REMARK  166  A    between atoms: _411  and  _413
REMARK  167  A    between atoms: _413  and  _414
REMARK  168  A    between atoms: _413  and  _416
REMARK  169  A    between atoms: _416  and  _417
REMARK  170  A    between atoms: _419  and  _421
REMARK  171  A    between atoms: _421  and  _422
REMARK  172  A    between atoms: _421  and  _424
REMARK  173  A    between atoms: _424  and  _425
REMARK  174  A    between atoms: _428  and  _430
REMARK  175  A    between atoms: _430  and  _431
REMARK  176  A    between atoms: _430  and  _433
REMARK  177  A    between atoms: _436  and  _438
REMARK  178  A    between atoms: _438  and  _439
REMARK  179  A    between atoms: _438  and  _441
REMARK  180  A    between atoms: _441  and  _442
REMARK  181  A    between atoms: _447  and  _449
REMARK  182  A    between atoms: _449  and  _450
REMARK  183  A    between atoms: _449  and  _452
REMARK  184  A    between atoms: _452  and  _453
REMARK  185  A    between atoms: _453  and  _454
REMARK  186  A    between atoms: _457  and  _459
REMARK  187  A    between atoms: _459  and  _460
REMARK  188  A    between atoms: _463  and  _465
REMARK  189  A    between atoms: _465  and  _466
REMARK  190  A    between atoms: _465  and  _468
REMARK  191  A    between atoms: _468  and  _469
REMARK  192  A    between atoms: _475  and  _477
REMARK  193  A    between atoms: _477  and  _478
REMARK  194  A    between atoms: _477  and  _480
REMARK  195  A    between atoms: _480  and  _481
REMARK  196  A    between atoms: _487  and  _489
REMARK  197  A    between atoms: _489  and  _490
REMARK  198  A    between atoms: _489  and  _492
REMARK  199  A    between atoms: _492  and  _493
REMARK  200  A    between atoms: _496  and  _498
REMARK  201  A    between atoms: _498  and  _499
REMARK  202  A    between atoms: _498  and  _501
REMARK  203  A    between atoms: _504  and  _506
REMARK  204  A    between atoms: _506  and  _507
REMARK  205  A    between atoms: _506  and  _509
REMARK  206  A    between atoms: _511  and  _513
REMARK  207  A    between atoms: _513  and  _514
REMARK  208  A    between atoms: _513  and  _516
REMARK  209  A    between atoms: _516  and  _517
REMARK  210  A    between atoms: _522  and  _524
REMARK  211  A    between atoms: _524  and  _525
REMARK  212  A    between atoms: _524  and  _527
REMARK  213  A    between atoms: _527  and  _528
REMARK  214  A    between atoms: _531  and  _533
REMARK  215  A    between atoms: _533  and  _534
REMARK  216  A    between atoms: _533  and  _536
REMARK  217  A    between atoms: _536  and  _537
REMARK  218  A    between atoms: _542  and  _544
REMARK  219  A    between atoms: _544  and  _545
REMARK  220  A    between atoms: _547  and  _549
REMARK  221  A    between atoms: _549  and  _550
REMARK  222  A    between atoms: _549  and  _552
REMARK  223  A    between atoms: _552  and  _553
REMARK  224  A    between atoms: _553  and  _554
REMARK  225  A    between atoms: _554  and  _555
REMARK  226  A    between atoms: _555  and  _556
REMARK  227  A    between atoms: _560  and  _562
REMARK  228  A    between atoms: _562  and  _563
REMARK  229  A    between atoms: _562  and  _565
REMARK  230  A    between atoms: _565  and  _566
REMARK  231  A    between atoms: _571  and  _572
REMARK  232  A    between atoms: _574  and  _576
REMARK  233  A    between atoms: _576  and  _577
REMARK  234  A    between atoms: _576  and  _579
REMARK  235  A    between atoms: _579  and  _580
REMARK                            x       y       z     vdW  Elec       q    Type
REMARK                         _______ _______ _______ _____ _____    ______ ____
ROOT
ATOM      1  C   GLN A   1      27.920  26.619   2.837  0.00  0.00    +0.238 C 
ATOM      2  O   GLN A   1      28.119  25.689   3.618  0.00  0.00    -0.274 OA
ATOM      3  N   ILE A   2      26.703  26.976   2.441  0.00  0.00    -0.298 N 
ATOM      4  H   ILE A   2      26.591  27.766   1.774  0.00  0.00    +0.150 HD
ENDROOT
BRANCH   1   5
ATOM      5  CA  GLN A   1      29.084  27.420   2.267  0.00  0.00    +0.145 C 
BRANCH   5   6
ATOM      6  N   GLN A   1      28.857  27.719   0.857  0.00  0.00    -0.238 NA
ATOM      7  H   GLN A   1      28.720  28.704   0.551  0.00  0.00    +0.142 HD
ENDBRANCH   5   6
BRANCH   5   8
ATOM      8  CB  GLN A   1      29.282  28.706   3.077  0.00  0.00    +0.036 C 
BRANCH   8   9
ATOM      9  CG  GLN A   1      30.591  29.415   2.759  0.00  0.00    +0.087 C 
BRANCH   9  10
ATOM     10  CD  GLN A   1      31.785  28.481   2.849  0.00  0.00    +0.219 C 
ATOM     11  OE1 GLN A   1      32.040  27.880   3.893  0.00  0.00    -0.275 OA
ATOM     12  NE2 GLN A   1      32.518  28.352   1.750  0.00  0.00    -0.329 N 
ATOM     13 HE21 GLN A   1      33.346  27.723   1.748  0.00  0.00    +0.145 HD
ATOM     14 HE22 GLN A   1      32.264  28.880   0.891  0.00  0.00    +0.145 HD
ENDBRANCH   9  10
ENDBRANCH   8   9
ENDBRANCH   5   8
ENDBRANCH   1   5
BRANCH   3  15
ATOM     15  CA  ILE A   2      25.524  26.274   2.929  0.00  0.00    +0.137 C 
BRANCH  15  16
ATOM     16  CB  ILE A   2      24.239  27.024   2.489  0.00  0.00    +0.026 C 
ATOM     17  CG2 ILE A   2      23.000  26.158   2.719  0.00  0.00    +0.002 C 
BRANCH  16  18
ATOM     18  CG1 ILE A   2      24.133  28.328   3.275  0.00  0.00    +0.002 C 
ATOM     19  CD1 ILE A   2      23.047  29.262   2.774  0.00  0.00    +0.000 C 
ENDBRANCH  16  18
ENDBRANCH  15  16
BRANCH  15  20
ATOM     20  C   ILE A   2      25.525  24.834   2.420  0.00  0.00    +0.227 C 
ATOM     21  O   ILE A   2      25.220  23.907   3.174  0.00  0.00    -0.286 OA
ENDBRANCH  15  20
ENDBRANCH   3  15
TORSDOF 9
REMARK  Name = ../refined-set-2016/1nq7/1nq7_pocket.pdb
REMARK  235 active torsions:
REMARK  status: ('A' for Active; 'I' for Inactive)
REMARK    1  A    between atoms: _1  and  _3
REMARK    2  A    between atoms: _3  and  _4
REMARK    3  A    between atoms: _3  and  _6
REMARK    4  A    between atoms: _6  and  _7
REMARK    5  A    between atoms: _12  and  _14
REMARK    6  A    between atoms: _14  and  _15
REMARK    7  A    between atoms: _14  and  _17
REMARK    8  A    between atoms: _17  and  _18
REMARK    9  A    between atoms: _21  and  _23
REMARK   10  A    between atoms: _23  and  _24
REMARK   11  A    between atoms: _23  and  _26
REMARK   12  A    between atoms: _28  and  _30
REMARK   13  A    between atoms: _30  and  _31
REMARK   14  A    between atoms: _30  and  _33
REMARK   15  A    between atoms: _33  and  _34
REMARK   16  A    between atoms: _34  and  _35
REMARK   17  A    between atoms: _40  and  _42
REMARK   18  A    between atoms: _42  and  _43
REMARK   19  A    between atoms: _42  and  _45
REMARK   20  A    between atoms: _45  and  _46
REMARK   21  A    between atoms: _51  and  _52
REMARK   22  A    between atoms: _54  and  _56
REMARK   23  A    between atoms: _56  and  _57
REMARK   24  A    between atoms: _56  and  _59
REMARK   25  A    between atoms: _59  and  _60
REMARK   26  A    between atoms: _63  and  _65
REMARK   27  A    between atoms: _65  and  _66
REMARK   28  A    between atoms: _65  and  _68
REMARK   29  A    between atoms: _68  and  _69
REMARK   30  A    between atoms: _72  and  _74
REMARK   31  A    between atoms: _74  and  _75
REMARK   32  A    between atoms: _74  and  _77
REMARK   33  A    between atoms: _77  and  _78
REMARK   34  A    between atoms: _81  and  _83
REMARK   35  A    between atoms: _83  and  _84
REMARK   36  A    between atoms: _83  and  _86
REMARK   37  A    between atoms: _86  and  _87
REMARK   38  A    between atoms: _97  and  _99
REMARK   39  A    between atoms: _99  and  _100
REMARK   40  A    between atoms: _99  and  _102
REMARK   41  A    between atoms: _102  and  _103
REMARK   42  A    between atoms: _103  and  _104
REMARK   43  A    between atoms: _109  and  _111
REMARK   44  A    between atoms: _111  and  _112
REMARK   45  A    between atoms: _111  and  _114
REMARK   46  A    between atoms: _116  and  _118
REMARK   47  A    between atoms: _118  and  _119
REMARK   48  A    between atoms: _122  and  _124
REMARK   49  A    between atoms: _124  and  _125
REMARK   50  A    between atoms: _124  and  _127
REMARK   51  A    between atoms: _127  and  _128
REMARK   52  A    between atoms: _128  and  _129
REMARK   53  A    between atoms: _134  and  _136
REMARK   54  A    between atoms: _136  and  _137
REMARK   55  A    between atoms: _136  and  _139
REMARK   56  A    between atoms: _139  and  _140
REMARK   57  A    between atoms: _143  and  _145
REMARK   58  A    between atoms: _145  and  _146
REMARK   59  A    between atoms: _145  and  _148
REMARK   60  A    between atoms: _148  and  _149
REMARK   61  A    between atoms: _154  and  _156
REMARK   62  A    between atoms: _156  and  _157
REMARK   63  A    between atoms: _160  and  _162
REMARK   64  A    between atoms: _162  and  _163
REMARK   65  A    between atoms: _162  and  _165
REMARK   66  A    between atoms: _165  and  _166
REMARK   67  A    between atoms: _169  and  _171
REMARK   68  A    between atoms: _171  and  _172
REMARK   69  A    between atoms: _171  and  _174
REMARK   70  A    between atoms: _174  and  _175
REMARK   71  A    between atoms: _180  and  _181
REMARK   72  A    between atoms: _183  and  _185
REMARK   73  A    between atoms: _185  and  _186
REMARK   74  A    between atoms: _185  and  _188
REMARK   75  A    between atoms: _191  and  _193
REMARK   76  A    between atoms: _193  and  _194
REMARK   77  A    between atoms: _193  and  _196
REMARK   78  A    between atoms: _198  and  _200
REMARK   79  A    between atoms: _200  and  _201
REMARK   80  A    between atoms: _200  and  _203
REMARK   81  A    between atoms: _203  and  _204
REMARK   82  A    between atoms: _207  and  _209
REMARK   83  A    between atoms: _209  and  _210
REMARK   84  A    between atoms: _209  and  _212
REMARK   85  A    between atoms: _212  and  _213
REMARK   86  A    between atoms: _213  and  _214
REMARK   87  A    between atoms: _217  and  _219
REMARK   88  A    between atoms: _219  and  _220
REMARK   89  A    between atoms: _219  and  _222
REMARK   90  A    between atoms: _225  and  _227
REMARK   91  A    between atoms: _227  and  _228
REMARK   92  A    between atoms: _227  and  _230
REMARK   93  A    between atoms: _233  and  _235
REMARK   94  A    between atoms: _235  and  _236
REMARK   95  A    between atoms: _235  and  _238
REMARK   96  A    between atoms: _238  and  _239
REMARK   97  A    between atoms: _242  and  _244
REMARK   98  A    between atoms: _244  and  _245
REMARK   99  A    between atoms: _244  and  _247
REMARK  100  A    between atoms: _250  and  _252
REMARK  101  A    between atoms: _252  and  _253
REMARK  102  A    between atoms: _252  and  _255
REMARK  103  A    between atoms: _255  and  _256
REMARK  104  A    between atoms: _256  and  _257
REMARK  105  A    between atoms: _257  and  _258
REMARK  106  A    between atoms: _267  and  _269
REMARK  107  A    between atoms: _269  and  _270
REMARK  108  A    between atoms: _269  and  _272
REMARK  109  A    between atoms: _272  and  _273
REMARK  110  A    between atoms: _273  and  _274
REMARK  111  A    between atoms: _276  and  _278
REMARK  112  A    between atoms: _278  and  _279
REMARK  113  A    between atoms: _278  and  _281
REMARK  114  A    between atoms: _283  and  _285
REMARK  115  A    between atoms: _285  and  _286
REMARK  116  A    between atoms: _285  and  _288
REMARK  117  A    between atoms: _288  and  _289
REMARK  118  A    between atoms: _289  and  _290
REMARK  119  A    between atoms: _290  and  _291
REMARK  120  A    between atoms: _300  and  _302
REMARK  121  A    between atoms: _302  and  _303
REMARK  122  A    between atoms: _306  and  _308
REMARK  123  A    between atoms: _308  and  _309
REMARK  124  A    between atoms: _308  and  _311
REMARK  125  A    between atoms: _311  and  _312
REMARK  126  A    between atoms: _318  and  _320
REMARK  127  A    between atoms: _320  and  _321
REMARK  128  A    between atoms: _320  and  _323
REMARK  129  A    between atoms: _326  and  _328
REMARK  130  A    between atoms: _328  and  _329
REMARK  131  A    between atoms: _328  and  _331
REMARK  132  A    between atoms: _331  and  _332
REMARK  133  A    between atoms: _335  and  _337
REMARK  134  A    between atoms: _337  and  _338
REMARK  135  A    between atoms: _337  and  _340
REMARK  136  A    between atoms: _340  and  _341
REMARK  137  A    between atoms: _347  and  _349
REMARK  138  A    between atoms: _349  and  _350
REMARK  139  A    between atoms: _349  and  _352
REMARK  140  A    between atoms: _352  and  _353
REMARK  141  A    between atoms: _353  and  _354
REMARK  142  A    between atoms: _357  and  _359
REMARK  143  A    between atoms: _359  and  _360
REMARK  144  A    between atoms: _362  and  _364
REMARK  145  A    between atoms: _364  and  _365
REMARK  146  A    between atoms: _367  and  _369
REMARK  147  A    between atoms: _369  and  _370
REMARK  148  A    between atoms: _372  and  _374
REMARK  149  A    between atoms: _374  and  _375
REMARK  150  A    between atoms: _374  and  _377
REMARK  151  A    between atoms: _377  and  _378
REMARK  152  A    between atoms: _378  and  _379
REMARK  153  A    between atoms: _381  and  _383
REMARK  154  A    between atoms: _383  and  _384
REMARK  155  A    between atoms: _383  and  _386
REMARK  156  A    between atoms: _386  and  _387
REMARK  157  A    between atoms: _387  and  _388
REMARK  158  A    between atoms: _390  and  _392
REMARK  159  A    between atoms: _392  and  _393
REMARK  160  A    between atoms: _392  and  _395
REMARK  161  A    between atoms: _395  and  _396
REMARK  162  A    between atoms: _402  and  _404
REMARK  163  A    between atoms: _404  and  _405
REMARK  164  A    between atoms: _404  and  _407
REMARK  165  A    between atoms: _407  and  _408
REMARK  166  A    between atoms: _411  and  _413
REMARK  167  A    between atoms: _413  and  _414
REMARK  168  A    between atoms: _413  and  _416
REMARK  169  A    between atoms: _416  and  _417
REMARK  170  A    between atoms: _419  and  _421
REMARK  171  A    between atoms: _421  and  _422
REMARK  172  A    between atoms: _421  and  _424
REMARK  173  A    between atoms: _424  and  _425
REMARK  174  A    between atoms: _428  and  _430
REMARK  175  A    between atoms: _430  and  _431
REMARK  176  A    between atoms: _430  and  _433
REMARK  177  A    between atoms: _436  and  _438
REMARK  178  A    between atoms: _438  and  _439
REMARK  179  A    between atoms: _438  and  _441
REMARK  180  A    between atoms: _441  and  _442
REMARK  181  A    between atoms: _447  and  _449
REMARK  182  A    between atoms: _449  and  _450
REMARK  183  A    between atoms: _449  and  _452
REMARK  184  A    between atoms: _452  and  _453
REMARK  185  A    between atoms: _453  and  _454
REMARK  186  A    between atoms: _457  and  _459
REMARK  187  A    between atoms: _459  and  _460
REMARK  188  A    between atoms: _463  and  _465
REMARK  189  A    between atoms: _465  and  _466
REMARK  190  A    between atoms: _465  and  _468
REMARK  191  A    between atoms: _468  and  _469
REMARK  192  A    between atoms: _475  and  _477
REMARK  193  A    between atoms: _477  and  _478
REMARK  194  A    between atoms: _477  and  _480
REMARK  195  A    between atoms: _480  and  _481
REMARK  196  A    between atoms: _487  and  _489
REMARK  197  A    between atoms: _489  and  _490
REMARK  198  A    between atoms: _489  and  _492
REMARK  199  A    between atoms: _492  and  _493
REMARK  200  A    between atoms: _496  and  _498
REMARK  201  A    between atoms: _498  and  _499
REMARK  202  A    between atoms: _498  and  _501
REMARK  203  A    between atoms: _504  and  _506
REMARK  204  A    between atoms: _506  and  _507
REMARK  205  A    between atoms: _506  and  _509
REMARK  206  A    between atoms: _511  and  _513
REMARK  207  A    between atoms: _513  and  _514
REMARK  208  A    between atoms: _513  and  _516
REMARK  209  A    between atoms: _516  and  _517
REMARK  210  A    between atoms: _522  and  _524
REMARK  211  A    between atoms: _524  and  _525
REMARK  212  A    between atoms: _524  and  _527
REMARK  213  A    between atoms: _527  and  _528
REMARK  214  A    between atoms: _531  and  _533
REMARK  215  A    between atoms: _533  and  _534
REMARK  216  A    between atoms: _533  and  _536
REMARK  217  A    between atoms: _536  and  _537
REMARK  218  A    between atoms: _542  and  _544
REMARK  219  A    between atoms: _544  and  _545
REMARK  220  A    between atoms: _547  and  _549
REMARK  221  A    between atoms: _549  and  _550
REMARK  222  A    between atoms: _549  and  _552
REMARK  223  A    between atoms: _552  and  _553
REMARK  224  A    between atoms: _553  and  _554
REMARK  225  A    between atoms: _554  and  _555
REMARK  226  A    between atoms: _555  and  _556
REMARK  227  A    between atoms: _560  and  _562
REMARK  228  A    between atoms: _562  and  _563
REMARK  229  A    between atoms: _562  and  _565
REMARK  230  A    between atoms: _565  and  _566
REMARK  231  A    between atoms: _571  and  _572
REMARK  232  A    between atoms: _574  and  _576
REMARK  233  A    between atoms: _576  and  _577
REMARK  234  A    between atoms: _576  and  _579
REMARK  235  A    between atoms: _579  and  _580
REMARK                            x       y       z     vdW  Elec       q    Type
REMARK                         _______ _______ _______ _____ _____    ______ ____
ROOT
ATOM      1  C   HIS A   1      28.666  21.815   3.593  0.00  0.00    +0.239 C 
ATOM      2  N   ALA A   2      27.978  22.663   4.353  0.00  0.00    -0.297 N 
ATOM      3  H   ALA A   2      27.839  23.639   4.022  0.00  0.00    +0.150 HD
ATOM      4  O   HIS A   1      28.858  20.636   3.920  0.00  0.00    -0.274 OA
ENDROOT
BRANCH   2   5
ATOM      5  CA  ALA A   2      27.413  22.263   5.637  0.00  0.00    +0.149 C 
ATOM      6  CB  ALA A   2      26.823  23.481   6.351  0.00  0.00    +0.031 C 
BRANCH   5   7
ATOM      7  C   ALA A   2      26.339  21.184   5.457  0.00  0.00    +0.241 C 
ATOM      8  O   ALA A   2      26.273  20.233   6.236  0.00  0.00    -0.273 OA
ATOM      9  N   ILE A   3      25.503  21.331   4.435  0.00  0.00    -0.298 N 
ATOM     10  H   ILE A   3      25.590  22.163   3.817  0.00  0.00    +0.150 HD
BRANCH   9  11
ATOM     11  CA  ILE A   3      24.462  20.338   4.167  0.00  0.00    +0.137 C 
BRANCH  11  12
ATOM     12  C   ILE A   3      25.080  18.968   3.884  0.00  0.00    +0.227 C 
ATOM     13  O   ILE A   3      24.572  17.939   4.344  0.00  0.00    -0.286 OA
ENDBRANCH  11  12
BRANCH  11  14
ATOM     14  CB  ILE A   3      23.580  20.764   2.980  0.00  0.00    +0.026 C 
ATOM     15  CG2 ILE A   3      22.769  19.576   2.466  0.00  0.00    +0.002 C 
BRANCH  14  16
ATOM     16  CG1 ILE A   3      22.655  21.898   3.421  0.00  0.00    +0.002 C 
ATOM     17  CD1 ILE A   3      21.874  22.524   2.285  0.00  0.00    +0.000 C 
ENDBRANCH  14  16
ENDBRANCH  11  14
ENDBRANCH   9  11
ENDBRANCH   5   7
ENDBRANCH   2   5
BRANCH   1  18
ATOM     18  CA  HIS A   1      29.202  22.364   2.263  0.00  0.00    +0.151 C 
BRANCH  18  19
ATOM     19  N   HIS A   1      28.124  23.066   1.579  0.00  0.00    -0.238 NA
ATOM     20  H   HIS A   1      28.249  24.066   1.321  0.00  0.00    +0.142 HD
ENDBRANCH  18  19
BRANCH  18  21
ATOM     21  CB  HIS A   1      30.359  23.344   2.483  0.00  0.00    +0.074 C 
BRANCH  21  22
ATOM     22  CG  HIS A   1      31.668  22.695   2.826  0.00  0.00    +0.082 A 
ATOM     23  CD2 HIS A   1      32.841  23.234   3.221  0.00  0.00    +0.115 A 
ATOM     24  NE2 HIS A   1      33.738  22.203   3.363  0.00  0.00    -0.221 NA
ATOM     25  CE1 HIS A   1      33.129  21.064   3.059  0.00  0.00    +0.199 A 
ATOM     26  ND1 HIS A   1      31.879  21.337   2.732  0.00  0.00    -0.227 NA
ENDBRANCH  21  22
ENDBRANCH  18  21
ENDBRANCH   1  18
TORSDOF 10
REMARK  Name = ../refined-set-2016/1nq7/1nq7_pocket.pdb
REMARK  235 active torsions:
REMARK  status: ('A' for Active; 'I' for Inactive)
REMARK    1  A    between atoms: _1  and  _3
REMARK    2  A    between atoms: _3  and  _4
REMARK    3  A    between atoms: _3  and  _6
REMARK    4  A    between atoms: _6  and  _7
REMARK    5  A    between atoms: _12  and  _14
REMARK    6  A    between atoms: _14  and  _15
REMARK    7  A    between atoms: _14  and  _17
REMARK    8  A    between atoms: _17  and  _18
REMARK    9  A    between atoms: _21  and  _23
REMARK   10  A    between atoms: _23  and  _24
REMARK   11  A    between atoms: _23  and  _26
REMARK   12  A    between atoms: _28  and  _30
REMARK   13  A    between atoms: _30  and  _31
REMARK   14  A    between atoms: _30  and  _33
REMARK   15  A    between atoms: _33  and  _34
REMARK   16  A    between atoms: _34  and  _35
REMARK   17  A    between atoms: _40  and  _42
REMARK   18  A    between atoms: _42  and  _43
REMARK   19  A    between atoms: _42  and  _45
REMARK   20  A    between atoms: _45  and  _46
REMARK   21  A    between atoms: _51  and  _52
REMARK   22  A    between atoms: _54  and  _56
REMARK   23  A    between atoms: _56  and  _57
REMARK   24  A    between atoms: _56  and  _59
REMARK   25  A    between atoms: _59  and  _60
REMARK   26  A    between atoms: _63  and  _65
REMARK   27  A    between atoms: _65  and  _66
REMARK   28  A    between atoms: _65  and  _68
REMARK   29  A    between atoms: _68  and  _69
REMARK   30  A    between atoms: _72  and  _74
REMARK   31  A    between atoms: _74  and  _75
REMARK   32  A    between atoms: _74  and  _77
REMARK   33  A    between atoms: _77  and  _78
REMARK   34  A    between atoms: _81  and  _83
REMARK   35  A    between atoms: _83  and  _84
REMARK   36  A    between atoms: _83  and  _86
REMARK   37  A    between atoms: _86  and  _87
REMARK   38  A    between atoms: _97  and  _99
REMARK   39  A    between atoms: _99  and  _100
REMARK   40  A    between atoms: _99  and  _102
REMARK   41  A    between atoms: _102  and  _103
REMARK   42  A    between atoms: _103  and  _104
REMARK   43  A    between atoms: _109  and  _111
REMARK   44  A    between atoms: _111  and  _112
REMARK   45  A    between atoms: _111  and  _114
REMARK   46  A    between atoms: _116  and  _118
REMARK   47  A    between atoms: _118  and  _119
REMARK   48  A    between atoms: _122  and  _124
REMARK   49  A    between atoms: _124  and  _125
REMARK   50  A    between atoms: _124  and  _127
REMARK   51  A    between atoms: _127  and  _128
REMARK   52  A    between atoms: _128  and  _129
REMARK   53  A    between atoms: _134  and  _136
REMARK   54  A    between atoms: _136  and  _137
REMARK   55  A    between atoms: _136  and  _139
REMARK   56  A    between atoms: _139  and  _140
REMARK   57  A    between atoms: _143  and  _145
REMARK   58  A    between atoms: _145  and  _146
REMARK   59  A    between atoms: _145  and  _148
REMARK   60  A    between atoms: _148  and  _149
REMARK   61  A    between atoms: _154  and  _156
REMARK   62  A    between atoms: _156  and  _157
REMARK   63  A    between atoms: _160  and  _162
REMARK   64  A    between atoms: _162  and  _163
REMARK   65  A    between atoms: _162  and  _165
REMARK   66  A    between atoms: _165  and  _166
REMARK   67  A    between atoms: _169  and  _171
REMARK   68  A    between atoms: _171  and  _172
REMARK   69  A    between atoms: _171  and  _174
REMARK   70  A    between atoms: _174  and  _175
REMARK   71  A    between atoms: _180  and  _181
REMARK   72  A    between atoms: _183  and  _185
REMARK   73  A    between atoms: _185  and  _186
REMARK   74  A    between atoms: _185  and  _188
REMARK   75  A    between atoms: _191  and  _193
REMARK   76  A    between atoms: _193  and  _194
REMARK   77  A    between atoms: _193  and  _196
REMARK   78  A    between atoms: _198  and  _200
REMARK   79  A    between atoms: _200  and  _201
REMARK   80  A    between atoms: _200  and  _203
REMARK   81  A    between atoms: _203  and  _204
REMARK   82  A    between atoms: _207  and  _209
REMARK   83  A    between atoms: _209  and  _210
REMARK   84  A    between atoms: _209  and  _212
REMARK   85  A    between atoms: _212  and  _213
REMARK   86  A    between atoms: _213  and  _214
REMARK   87  A    between atoms: _217  and  _219
REMARK   88  A    between atoms: _219  and  _220
REMARK   89  A    between atoms: _219  and  _222
REMARK   90  A    between atoms: _225  and  _227
REMARK   91  A    between atoms: _227  and  _228
REMARK   92  A    between atoms: _227  and  _230
REMARK   93  A    between atoms: _233  and  _235
REMARK   94  A    between atoms: _235  and  _236
REMARK   95  A    between atoms: _235  and  _238
REMARK   96  A    between atoms: _238  and  _239
REMARK   97  A    between atoms: _242  and  _244
REMARK   98  A    between atoms: _244  and  _245
REMARK   99  A    between atoms: _244  and  _247
REMARK  100  A    between atoms: _250  and  _252
REMARK  101  A    between atoms: _252  and  _253
REMARK  102  A    between atoms: _252  and  _255
REMARK  103  A    between atoms: _255  and  _256
REMARK  104  A    between atoms: _256  and  _257
REMARK  105  A    between atoms: _257  and  _258
REMARK  106  A    between atoms: _267  and  _269
REMARK  107  A    between atoms: _269  and  _270
REMARK  108  A    between atoms: _269  and  _272
REMARK  109  A    between atoms: _272  and  _273
REMARK  110  A    between atoms: _273  and  _274
REMARK  111  A    between atoms: _276  and  _278
REMARK  112  A    between atoms: _278  and  _279
REMARK  113  A    between atoms: _278  and  _281
REMARK  114  A    between atoms: _283  and  _285
REMARK  115  A    between atoms: _285  and  _286
REMARK  116  A    between atoms: _285  and  _288
REMARK  117  A    between atoms: _288  and  _289
REMARK  118  A    between atoms: _289  and  _290
REMARK  119  A    between atoms: _290  and  _291
REMARK  120  A    between atoms: _300  and  _302
REMARK  121  A    between atoms: _302  and  _303
REMARK  122  A    between atoms: _306  and  _308
REMARK  123  A    between atoms: _308  and  _309
REMARK  124  A    between atoms: _308  and  _311
REMARK  125  A    between atoms: _311  and  _312
REMARK  126  A    between atoms: _318  and  _320
REMARK  127  A    between atoms: _320  and  _321
REMARK  128  A    between atoms: _320  and  _323
REMARK  129  A    between atoms: _326  and  _328
REMARK  130  A    between atoms: _328  and  _329
REMARK  131  A    between atoms: _328  and  _331
REMARK  132  A    between atoms: _331  and  _332
REMARK  133  A    between atoms: _335  and  _337
REMARK  134  A    between atoms: _337  and  _338
REMARK  135  A    between atoms: _337  and  _340
REMARK  136  A    between atoms: _340  and  _341
REMARK  137  A    between atoms: _347  and  _349
REMARK  138  A    between atoms: _349  and  _350
REMARK  139  A    between atoms: _349  and  _352
REMARK  140  A    between atoms: _352  and  _353
REMARK  141  A    between atoms: _353  and  _354
REMARK  142  A    between atoms: _357  and  _359
REMARK  143  A    between atoms: _359  and  _360
REMARK  144  A    between atoms: _362  and  _364
REMARK  145  A    between atoms: _364  and  _365
REMARK  146  A    between atoms: _367  and  _369
REMARK  147  A    between atoms: _369  and  _370
REMARK  148  A    between atoms: _372  and  _374
REMARK  149  A    between atoms: _374  and  _375
REMARK  150  A    between atoms: _374  and  _377
REMARK  151  A    between atoms: _377  and  _378
REMARK  152  A    between atoms: _378  and  _379
REMARK  153  A    between atoms: _381  and  _383
REMARK  154  A    between atoms: _383  and  _384
REMARK  155  A    between atoms: _383  and  _386
REMARK  156  A    between atoms: _386  and  _387
REMARK  157  A    between atoms: _387  and  _388
REMARK  158  A    between atoms: _390  and  _392
REMARK  159  A    between atoms: _392  and  _393
REMARK  160  A    between atoms: _392  and  _395
REMARK  161  A    between atoms: _395  and  _396
REMARK  162  A    between atoms: _402  and  _404
REMARK  163  A    between atoms: _404  and  _405
REMARK  164  A    between atoms: _404  and  _407
REMARK  165  A    between atoms: _407  and  _408
REMARK  166  A    between atoms: _411  and  _413
REMARK  167  A    between atoms: _413  and  _414
REMARK  168  A    between atoms: _413  and  _416
REMARK  169  A    between atoms: _416  and  _417
REMARK  170  A    between atoms: _419  and  _421
REMARK  171  A    between atoms: _421  and  _422
REMARK  172  A    between atoms: _421  and  _424
REMARK  173  A    between atoms: _424  and  _425
REMARK  174  A    between atoms: _428  and  _430
REMARK  175  A    between atoms: _430  and  _431
REMARK  176  A    between atoms: _430  and  _433
REMARK  177  A    between atoms: _436  and  _438
REMARK  178  A    between atoms: _438  and  _439
REMARK  179  A    between atoms: _438  and  _441
REMARK  180  A    between atoms: _441  and  _442
REMARK  181  A    between atoms: _447  and  _449
REMARK  182  A    between atoms: _449  and  _450
REMARK  183  A    between atoms: _449  and  _452
REMARK  184  A    between atoms: _452  and  _453
REMARK  185  A    between atoms: _453  and  _454
REMARK  186  A    between atoms: _457  and  _459
REMARK  187  A    between atoms: _459  and  _460
REMARK  188  A    between atoms: _463  and  _465
REMARK  189  A    between atoms: _465  and  _466
REMARK  190  A    between atoms: _465  and  _468
REMARK  191  A    between atoms: _468  and  _469
REMARK  192  A    between atoms: _475  and  _477
REMARK  193  A    between atoms: _477  and  _478
REMARK  194  A    between atoms: _477  and  _480
REMARK  195  A    between atoms: _480  and  _481
REMARK  196  A    between atoms: _487  and  _489
REMARK  197  A    between atoms: _489  and  _490
REMARK  198  A    between atoms: _489  and  _492
REMARK  199  A    between atoms: _492  and  _493
REMARK  200  A    between atoms: _496  and  _498
REMARK  201  A    between atoms: _498  and  _499
REMARK  202  A    between atoms: _498  and  _501
REMARK  203  A    between atoms: _504  and  _506
REMARK  204  A    between atoms: _506  and  _507
REMARK  205  A    between atoms: _506  and  _509
REMARK  206  A    between atoms: _511  and  _513
REMARK  207  A    between atoms: _513  and  _514
REMARK  208  A    between atoms: _513  and  _516
REMARK  209  A    between atoms: _516  and  _517
REMARK  210  A    between atoms: _522  and  _524
REMARK  211  A    between atoms: _524  and  _525
REMARK  212  A    between atoms: _524  and  _527
REMARK  213  A    between atoms: _527  and  _528
REMARK  214  A    between atoms: _531  and  _533
REMARK  215  A    between atoms: _533  and  _534
REMARK  216  A    between atoms: _533  and  _536
REMARK  217  A    between atoms: _536  and  _537
REMARK  218  A    between atoms: _542  and  _544
REMARK  219  A    between atoms: _544  and  _545
REMARK  220  A    between atoms: _547  and  _549
REMARK  221  A    between atoms: _549  and  _550
REMARK  222  A    between atoms: _549  and  _552
REMARK  223  A    between atoms: _552  and  _553
REMARK  224  A    between atoms: _553  and  _554
REMARK  225  A    between atoms: _554  and  _555
REMARK  226  A    between atoms: _555  and  _556
REMARK  227  A    between atoms: _560  and  _562
REMARK  228  A    between atoms: _562  and  _563
REMARK  229  A    between atoms: _562  and  _565
REMARK  230  A    between atoms: _565  and  _566
REMARK  231  A    between atoms: _571  and  _572
REMARK  232  A    between atoms: _574  and  _576
REMARK  233  A    between atoms: _576  and  _577
REMARK  234  A    between atoms: _576  and  _579
REMARK  235  A    between atoms: _579  and  _580
REMARK                            x       y       z     vdW  Elec       q    Type
REMARK                         _______ _______ _______ _____ _____    ______ ____
ROOT
ATOM      1  CA  TYR A   1      28.056  17.132   6.389  0.00  0.00    +0.149 C 
ENDROOT
BRANCH   1   2
ATOM      2  C   TYR A   1      26.831  16.613   7.147  0.00  0.00    +0.239 C 
ATOM      3  O   TYR A   1      26.933  15.657   7.915  0.00  0.00    -0.274 OA
ATOM      4  N   VAL A   2      25.672  17.236   6.936  0.00  0.00    -0.298 N 
ATOM      5  H   VAL A   2      25.631  18.060   6.302  0.00  0.00    +0.150 HD
BRANCH   4   6
ATOM      6  CA  VAL A   2      24.460  16.760   7.596  0.00  0.00    +0.137 C 
BRANCH   6   7
ATOM      7  CB  VAL A   2      23.293  17.778   7.460  0.00  0.00    +0.026 C 
ATOM      8  CG2 VAL A   2      23.616  19.039   8.248  0.00  0.00    +0.002 C 
ATOM      9  CG1 VAL A   2      22.005  17.177   8.009  0.00  0.00    +0.002 C 
ENDBRANCH   6   7
BRANCH   6  10
ATOM     10  C   VAL A   2      24.066  15.417   6.977  0.00  0.00    +0.227 C 
ATOM     11  O   VAL A   2      23.566  14.528   7.676  0.00  0.00    -0.286 OA
ENDBRANCH   6  10
ENDBRANCH   4   6
ENDBRANCH   1   2
BRANCH   1  12
ATOM     12  N   TYR A   1      27.692  17.731   5.115  0.00  0.00    -0.238 NA
ATOM     13  H   TYR A   1      27.781  18.759   4.983  0.00  0.00    +0.142 HD
ENDBRANCH   1  12
BRANCH   1  14
ATOM     14  CB  TYR A   1      28.854  18.131   7.239  0.00  0.00    +0.053 C 
BRANCH  14  15
ATOM     15  CG  TYR A   1      30.339  18.086   6.952  0.00  0.00    -0.020 A 
ATOM     16  CD2 TYR A   1      31.102  16.996   7.362  0.00  0.00    -0.001 A 
ATOM     17  CE2 TYR A   1      32.458  16.910   7.065  0.00  0.00    +0.036 A 
ATOM     18  CZ  TYR A   1      33.066  17.922   6.355  0.00  0.00    +0.134 A 
ATOM     19  CE1 TYR A   1      32.342  19.025   5.932  0.00  0.00    +0.036 A 
ATOM     20  CD1 TYR A   1      30.972  19.103   6.236  0.00  0.00    -0.001 A 
BRANCH  18  21
ATOM     21  OH  TYR A   1      34.410  17.820   6.056  0.00  0.00    -0.506 OA
ATOM     22  HH  TYR A   1      34.529  17.822   5.073  0.00  0.00    +0.292 HD
ENDBRANCH  18  21
ENDBRANCH  14  15
ENDBRANCH   1  14
TORSDOF 8
REMARK  Name = ../refined-set-2016/1nq7/1nq7_pocket.pdb
REMARK  235 active torsions:
REMARK  status: ('A' for Active; 'I' for Inactive)
REMARK    1  A    between atoms: _1  and  _3
REMARK    2  A    between atoms: _3  and  _4
REMARK    3  A    between atoms: _3  and  _6
REMARK    4  A    between atoms: _6  and  _7
REMARK    5  A    between atoms: _12  and  _14
REMARK    6  A    between atoms: _14  and  _15
REMARK    7  A    between atoms: _14  and  _17
REMARK    8  A    between atoms: _17  and  _18
REMARK    9  A    between atoms: _21  and  _23
REMARK   10  A    between atoms: _23  and  _24
REMARK   11  A    between atoms: _23  and  _26
REMARK   12  A    between atoms: _28  and  _30
REMARK   13  A    between atoms: _30  and  _31
REMARK   14  A    between atoms: _30  and  _33
REMARK   15  A    between atoms: _33  and  _34
REMARK   16  A    between atoms: _34  and  _35
REMARK   17  A    between atoms: _40  and  _42
REMARK   18  A    between atoms: _42  and  _43
REMARK   19  A    between atoms: _42  and  _45
REMARK   20  A    between atoms: _45  and  _46
REMARK   21  A    between atoms: _51  and  _52
REMARK   22  A    between atoms: _54  and  _56
REMARK   23  A    between atoms: _56  and  _57
REMARK   24  A    between atoms: _56  and  _59
REMARK   25  A    between atoms: _59  and  _60
REMARK   26  A    between atoms: _63  and  _65
REMARK   27  A    between atoms: _65  and  _66
REMARK   28  A    between atoms: _65  and  _68
REMARK   29  A    between atoms: _68  and  _69
REMARK   30  A    between atoms: _72  and  _74
REMARK   31  A    between atoms: _74  and  _75
REMARK   32  A    between atoms: _74  and  _77
REMARK   33  A    between atoms: _77  and  _78
REMARK   34  A    between atoms: _81  and  _83
REMARK   35  A    between atoms: _83  and  _84
REMARK   36  A    between atoms: _83  and  _86
REMARK   37  A    between atoms: _86  and  _87
REMARK   38  A    between atoms: _97  and  _99
REMARK   39  A    between atoms: _99  and  _100
REMARK   40  A    between atoms: _99  and  _102
REMARK   41  A    between atoms: _102  and  _103
REMARK   42  A    between atoms: _103  and  _104
REMARK   43  A    between atoms: _109  and  _111
REMARK   44  A    between atoms: _111  and  _112
REMARK   45  A    between atoms: _111  and  _114
REMARK   46  A    between atoms: _116  and  _118
REMARK   47  A    between atoms: _118  and  _119
REMARK   48  A    between atoms: _122  and  _124
REMARK   49  A    between atoms: _124  and  _125
REMARK   50  A    between atoms: _124  and  _127
REMARK   51  A    between atoms: _127  and  _128
REMARK   52  A    between atoms: _128  and  _129
REMARK   53  A    between atoms: _134  and  _136
REMARK   54  A    between atoms: _136  and  _137
REMARK   55  A    between atoms: _136  and  _139
REMARK   56  A    between atoms: _139  and  _140
REMARK   57  A    between atoms: _143  and  _145
REMARK   58  A    between atoms: _145  and  _146
REMARK   59  A    between atoms: _145  and  _148
REMARK   60  A    between atoms: _148  and  _149
REMARK   61  A    between atoms: _154  and  _156
REMARK   62  A    between atoms: _156  and  _157
REMARK   63  A    between atoms: _160  and  _162
REMARK   64  A    between atoms: _162  and  _163
REMARK   65  A    between atoms: _162  and  _165
REMARK   66  A    between atoms: _165  and  _166
REMARK   67  A    between atoms: _169  and  _171
REMARK   68  A    between atoms: _171  and  _172
REMARK   69  A    between atoms: _171  and  _174
REMARK   70  A    between atoms: _174  and  _175
REMARK   71  A    between atoms: _180  and  _181
REMARK   72  A    between atoms: _183  and  _185
REMARK   73  A    between atoms: _185  and  _186
REMARK   74  A    between atoms: _185  and  _188
REMARK   75  A    between atoms: _191  and  _193
REMARK   76  A    between atoms: _193  and  _194
REMARK   77  A    between atoms: _193  and  _196
REMARK   78  A    between atoms: _198  and  _200
REMARK   79  A    between atoms: _200  and  _201
REMARK   80  A    between atoms: _200  and  _203
REMARK   81  A    between atoms: _203  and  _204
REMARK   82  A    between atoms: _207  and  _209
REMARK   83  A    between atoms: _209  and  _210
REMARK   84  A    between atoms: _209  and  _212
REMARK   85  A    between atoms: _212  and  _213
REMARK   86  A    between atoms: _213  and  _214
REMARK   87  A    between atoms: _217  and  _219
REMARK   88  A    between atoms: _219  and  _220
REMARK   89  A    between atoms: _219  and  _222
REMARK   90  A    between atoms: _225  and  _227
REMARK   91  A    between atoms: _227  and  _228
REMARK   92  A    between atoms: _227  and  _230
REMARK   93  A    between atoms: _233  and  _235
REMARK   94  A    between atoms: _235  and  _236
REMARK   95  A    between atoms: _235  and  _238
REMARK   96  A    between atoms: _238  and  _239
REMARK   97  A    between atoms: _242  and  _244
REMARK   98  A    between atoms: _244  and  _245
REMARK   99  A    between atoms: _244  and  _247
REMARK  100  A    between atoms: _250  and  _252
REMARK  101  A    between atoms: _252  and  _253
REMARK  102  A    between atoms: _252  and  _255
REMARK  103  A    between atoms: _255  and  _256
REMARK  104  A    between atoms: _256  and  _257
REMARK  105  A    between atoms: _257  and  _258
REMARK  106  A    between atoms: _267  and  _269
REMARK  107  A    between atoms: _269  and  _270
REMARK  108  A    between atoms: _269  and  _272
REMARK  109  A    between atoms: _272  and  _273
REMARK  110  A    between atoms: _273  and  _274
REMARK  111  A    between atoms: _276  and  _278
REMARK  112  A    between atoms: _278  and  _279
REMARK  113  A    between atoms: _278  and  _281
REMARK  114  A    between atoms: _283  and  _285
REMARK  115  A    between atoms: _285  and  _286
REMARK  116  A    between atoms: _285  and  _288
REMARK  117  A    between atoms: _288  and  _289
REMARK  118  A    between atoms: _289  and  _290
REMARK  119  A    between atoms: _290  and  _291
REMARK  120  A    between atoms: _300  and  _302
REMARK  121  A    between atoms: _302  and  _303
REMARK  122  A    between atoms: _306  and  _308
REMARK  123  A    between atoms: _308  and  _309
REMARK  124  A    between atoms: _308  and  _311
REMARK  125  A    between atoms: _311  and  _312
REMARK  126  A    between atoms: _318  and  _320
REMARK  127  A    between atoms: _320  and  _321
REMARK  128  A    between atoms: _320  and  _323
REMARK  129  A    between atoms: _326  and  _328
REMARK  130  A    between atoms: _328  and  _329
REMARK  131  A    between atoms: _328  and  _331
REMARK  132  A    between atoms: _331  and  _332
REMARK  133  A    between atoms: _335  and  _337
REMARK  134  A    between atoms: _337  and  _338
REMARK  135  A    between atoms: _337  and  _340
REMARK  136  A    between atoms: _340  and  _341
REMARK  137  A    between atoms: _347  and  _349
REMARK  138  A    between atoms: _349  and  _350
REMARK  139  A    between atoms: _349  and  _352
REMARK  140  A    between atoms: _352  and  _353
REMARK  141  A    between atoms: _353  and  _354
REMARK  142  A    between atoms: _357  and  _359
REMARK  143  A    between atoms: _359  and  _360
REMARK  144  A    between atoms: _362  and  _364
REMARK  145  A    between atoms: _364  and  _365
REMARK  146  A    between atoms: _367  and  _369
REMARK  147  A    between atoms: _369  and  _370
REMARK  148  A    between atoms: _372  and  _374
REMARK  149  A    between atoms: _374  and  _375
REMARK  150  A    between atoms: _374  and  _377
REMARK  151  A    between atoms: _377  and  _378
REMARK  152  A    between atoms: _378  and  _379
REMARK  153  A    between atoms: _381  and  _383
REMARK  154  A    between atoms: _383  and  _384
REMARK  155  A    between atoms: _383  and  _386
REMARK  156  A    between atoms: _386  and  _387
REMARK  157  A    between atoms: _387  and  _388
REMARK  158  A    between atoms: _390  and  _392
REMARK  159  A    between atoms: _392  and  _393
REMARK  160  A    between atoms: _392  and  _395
REMARK  161  A    between atoms: _395  and  _396
REMARK  162  A    between atoms: _402  and  _404
REMARK  163  A    between atoms: _404  and  _405
REMARK  164  A    between atoms: _404  and  _407
REMARK  165  A    between atoms: _407  and  _408
REMARK  166  A    between atoms: _411  and  _413
REMARK  167  A    between atoms: _413  and  _414
REMARK  168  A    between atoms: _413  and  _416
REMARK  169  A    between atoms: _416  and  _417
REMARK  170  A    between atoms: _419  and  _421
REMARK  171  A    between atoms: _421  and  _422
REMARK  172  A    between atoms: _421  and  _424
REMARK  173  A    between atoms: _424  and  _425
REMARK  174  A    between atoms: _428  and  _430
REMARK  175  A    between atoms: _430  and  _431
REMARK  176  A    between atoms: _430  and  _433
REMARK  177  A    between atoms: _436  and  _438
REMARK  178  A    between atoms: _438  and  _439
REMARK  179  A    between atoms: _438  and  _441
REMARK  180  A    between atoms: _441  and  _442
REMARK  181  A    between atoms: _447  and  _449
REMARK  182  A    between atoms: _449  and  _450
REMARK  183  A    between atoms: _449  and  _452
REMARK  184  A    between atoms: _452  and  _453
REMARK  185  A    between atoms: _453  and  _454
REMARK  186  A    between atoms: _457  and  _459
REMARK  187  A    between atoms: _459  and  _460
REMARK  188  A    between atoms: _463  and  _465
REMARK  189  A    between atoms: _465  and  _466
REMARK  190  A    between atoms: _465  and  _468
REMARK  191  A    between atoms: _468  and  _469
REMARK  192  A    between atoms: _475  and  _477
REMARK  193  A    between atoms: _477  and  _478
REMARK  194  A    between atoms: _477  and  _480
REMARK  195  A    between atoms: _480  and  _481
REMARK  196  A    between atoms: _487  and  _489
REMARK  197  A    between atoms: _489  and  _490
REMARK  198  A    between atoms: _489  and  _492
REMARK  199  A    between atoms: _492  and  _493
REMARK  200  A    between atoms: _496  and  _498
REMARK  201  A    between atoms: _498  and  _499
REMARK  202  A    between atoms: _498  and  _501
REMARK  203  A    between atoms: _504  and  _506
REMARK  204  A    between atoms: _506  and  _507
REMARK  205  A    between atoms: _506  and  _509
REMARK  206  A    between atoms: _511  and  _513
REMARK  207  A    between atoms: _513  and  _514
REMARK  208  A    between atoms: _513  and  _516
REMARK  209  A    between atoms: _516  and  _517
REMARK  210  A    between atoms: _522  and  _524
REMARK  211  A    between atoms: _524  and  _525
REMARK  212  A    between atoms: _524  and  _527
REMARK  213  A    between atoms: _527  and  _528
REMARK  214  A    between atoms: _531  and  _533
REMARK  215  A    between atoms: _533  and  _534
REMARK  216  A    between atoms: _533  and  _536
REMARK  217  A    between atoms: _536  and  _537
REMARK  218  A    between atoms: _542  and  _544
REMARK  219  A    between atoms: _544  and  _545
REMARK  220  A    between atoms: _547  and  _549
REMARK  221  A    between atoms: _549  and  _550
REMARK  222  A    between atoms: _549  and  _552
REMARK  223  A    between atoms: _552  and  _553
REMARK  224  A    between atoms: _553  and  _554
REMARK  225  A    between atoms: _554  and  _555
REMARK  226  A    between atoms: _555  and  _556
REMARK  227  A    between atoms: _560  and  _562
REMARK  228  A    between atoms: _562  and  _563
REMARK  229  A    between atoms: _562  and  _565
REMARK  230  A    between atoms: _565  and  _566
REMARK  231  A    between atoms: _571  and  _572
REMARK  232  A    between atoms: _574  and  _576
REMARK  233  A    between atoms: _576  and  _577
REMARK  234  A    between atoms: _576  and  _579
REMARK  235  A    between atoms: _579  and  _580
REMARK                            x       y       z     vdW  Elec       q    Type
REMARK                         _______ _______ _______ _____ _____    ______ ____
ROOT
ATOM      1  CA  ARG A   8      24.966  23.530  14.039  0.00  0.00    +0.149 C 
ENDROOT
BRANCH   1   2
ATOM      2  C   ARG A   8      25.659  24.882  13.966  0.00  0.00    +0.241 C 
ATOM      3  O   ARG A   8      26.707  25.082  14.587  0.00  0.00    -0.273 OA
ATOM      4  N   MET A   9      25.069  25.804  13.213  0.00  0.00    -0.297 N 
ATOM      5  H   MET A   9      24.186  25.565  12.718  0.00  0.00    +0.150 HD
BRANCH   4   6
ATOM      6  CA  MET A   9      25.628  27.144  13.063  0.00  0.00    +0.149 C 
BRANCH   6   7
ATOM      7  C   MET A   9      25.825  27.793  14.428  0.00  0.00    +0.241 C 
ATOM      8  N   CYS A  10      24.967  27.455  15.384  0.00  0.00    -0.296 N 
ATOM      9  H   CYS A  10      24.216  26.767  15.175  0.00  0.00    +0.150 HD
ATOM     10  O   MET A   9      26.750  28.584  14.620  0.00  0.00    -0.273 OA
BRANCH   8  11
ATOM     11  CA  CYS A  10      25.058  28.030  16.722  0.00  0.00    +0.160 C 
BRANCH  11  12
ATOM     12  C   CYS A  10      26.373  27.698  17.431  0.00  0.00    +0.242 C 
ATOM     13  O   CYS A  10      26.823  28.450  18.304  0.00  0.00    -0.273 OA
ATOM     14  N   ARG A  11      26.995  26.584  17.044  0.00  0.00    -0.297 N 
ATOM     15  H   ARG A  11      26.554  25.991  16.312  0.00  0.00    +0.150 HD
BRANCH  14  16
ATOM     16  CA  ARG A  11      28.279  26.167  17.615  0.00  0.00    +0.149 C 
BRANCH  16  17
ATOM     17  C   ARG A  11      29.369  27.121  17.141  0.00  0.00    +0.241 C 
ATOM     18  O   ARG A  11      30.391  27.294  17.808  0.00  0.00    -0.273 OA
ATOM     19  N   ALA A  12      29.142  27.714  15.974  0.00  0.00    -0.297 N 
ATOM     20  H   ALA A  12      28.243  27.526  15.487  0.00  0.00    +0.150 HD
BRANCH  19  21
ATOM     21  CA  ALA A  12      30.101  28.619  15.346  0.00  0.00    +0.149 C 
ATOM     22  CB  ALA A  12      30.351  28.165  13.914  0.00  0.00    +0.031 C 
BRANCH  21  23
ATOM     23  C   ALA A  12      29.610  30.061  15.363  0.00  0.00    +0.241 C 
ATOM     24  N   PHE A  13      28.970  30.439  16.462  0.00  0.00    -0.298 N 
ATOM     25  H   PHE A  13      28.851  29.755  17.236  0.00  0.00    +0.150 HD
ATOM     26  O   ALA A  12      29.810  30.806  14.403  0.00  0.00    -0.273 OA
BRANCH  24  27
ATOM     27  CA  PHE A  13      28.430  31.781  16.618  0.00  0.00    +0.141 C 
BRANCH  27  28
ATOM     28  C   PHE A  13      28.954  32.387  17.916  0.00  0.00    +0.227 C 
ATOM     29  O   PHE A  13      28.966  31.728  18.955  0.00  0.00    -0.286 OA
ENDBRANCH  27  28
BRANCH  27  30
ATOM     30  CB  PHE A  13      26.898  31.708  16.638  0.00  0.00    +0.054 C 
BRANCH  30  31
ATOM     31  CG  PHE A  13      26.216  33.047  16.707  0.00  0.00    -0.020 A 
ATOM     32  CD2 PHE A  13      25.819  33.573  17.930  0.00  0.00    -0.004 A 
ATOM     33  CE2 PHE A  13      25.176  34.811  18.001  0.00  0.00    -0.000 A 
ATOM     34  CZ  PHE A  13      24.941  35.532  16.839  0.00  0.00    -0.000 A 
ATOM     35  CE1 PHE A  13      25.337  35.016  15.611  0.00  0.00    -0.000 A 
ATOM     36  CD1 PHE A  13      25.976  33.780  15.550  0.00  0.00    -0.004 A 
ENDBRANCH  30  31
ENDBRANCH  27  30
ENDBRANCH  24  27
ENDBRANCH  21  23
ENDBRANCH  19  21
ENDBRANCH  16  17
BRANCH  16  37
ATOM     37  CB  ARG A  11      28.667  24.765  17.128  0.00  0.00    +0.033 C 
BRANCH  37  38
ATOM     38  CG  ARG A  11      27.692  23.666  17.471  0.00  0.00    +0.045 C 
BRANCH  38  39
ATOM     39  CD  ARG A  11      28.036  22.374  16.715  0.00  0.00    +0.174 C 
BRANCH  39  40
ATOM     40  NE  ARG A  11      29.299  21.749  17.125  0.00  0.00    -0.265 N 
ATOM     41  HE  ARG A  11      29.335  21.304  18.064  0.00  0.00    +0.259 HD
ATOM     42  CZ  ARG A  11      30.403  21.711  16.380  0.00  0.00    +0.342 C 
ATOM     43  NH2 ARG A  11      31.474  21.073  16.833  0.00  0.00    -0.292 N 
ATOM     44 HH21 ARG A  11      31.448  20.608  17.763  0.00  0.00    +0.255 HD
ATOM     45 HH22 ARG A  11      32.340  21.038  16.258  0.00  0.00    +0.255 HD
ATOM     46  NH1 ARG A  11      30.429  22.269  15.177  0.00  0.00    -0.292 N 
ATOM     47 HH11 ARG A  11      29.581  22.743  14.805  0.00  0.00    +0.255 HD
ATOM     48 HH12 ARG A  11      31.297  22.232  14.605  0.00  0.00    +0.255 HD
ENDBRANCH  39  40
ENDBRANCH  38  39
ENDBRANCH  37  38
ENDBRANCH  16  37
ENDBRANCH  14  16
ENDBRANCH  11  12
BRANCH  11  49
ATOM     49  CB  CYS A  10      23.853  27.583  17.552  0.00  0.00    +0.098 C 
ATOM     50  SG  CYS A  10      22.263  28.119  16.828  0.00  0.00    -0.080 S 
ENDBRANCH  11  49
ENDBRANCH   8  11
ENDBRANCH   6   7
BRANCH   6  51
ATOM     51  CB  MET A   9      24.692  28.008  12.217  0.00  0.00    +0.041 C 
BRANCH  51  52
ATOM     52  CG  MET A   9      25.240  29.394  11.917  0.00  0.00    +0.060 C 
BRANCH  52  53
ATOM     53  SD  MET A   9      23.970  30.484  11.248  0.00  0.00    -0.139 S 
ATOM     54  CE  MET A   9      23.252  31.089  12.734  0.00  0.00    +0.069 C 
ENDBRANCH  52  53
ENDBRANCH  51  52
ENDBRANCH   6  51
ENDBRANCH   4   6
ENDBRANCH   1   2
BRANCH   1  57
ATOM     55  C   VAL A   7      22.842  24.248  14.979  0.00  0.00    +0.241 C 
ATOM     56  O   VAL A   7      23.398  24.769  15.945  0.00  0.00    -0.273 OA
ATOM     57  N   ARG A   8      23.511  23.639  14.004  0.00  0.00    -0.297 N 
ATOM     58  H   ARG A   8      22.988  23.233  13.202  0.00  0.00    +0.150 HD
BRANCH  55  59
ATOM     59  CA  VAL A   7      21.319  24.295  14.822  0.00  0.00    +0.149 C 
BRANCH  59  62
ATOM     60  C   LEU A   6      21.344  25.847  12.965  0.00  0.00    +0.241 C 
ATOM     61  O   LEU A   6      21.929  26.683  13.656  0.00  0.00    -0.273 OA
ATOM     62  N   VAL A   7      20.992  24.659  13.450  0.00  0.00    -0.297 N 
ATOM     63  H   VAL A   7      20.480  23.986  12.845  0.00  0.00    +0.150 HD
BRANCH  60  64
ATOM     64  CA  LEU A   6      20.986  26.146  11.508  0.00  0.00    +0.149 C 
BRANCH  64  67
ATOM     65  C   VAL A   5      22.476  24.519  10.521  0.00  0.00    +0.241 C 
ATOM     66  O   VAL A   5      23.434  25.010  11.123  0.00  0.00    -0.273 OA
ATOM     67  N   LEU A   6      21.239  24.997  10.643  0.00  0.00    -0.297 N 
ATOM     68  H   LEU A   6      20.455  24.553  10.123  0.00  0.00    +0.150 HD
BRANCH  65  69
ATOM     69  CA  VAL A   5      22.667  23.313   9.606  0.00  0.00    +0.149 C 
BRANCH  69  72
ATOM     70  C   VAL A   4      21.368  21.829  11.039  0.00  0.00    +0.241 C 
ATOM     71  O   VAL A   4      22.078  22.068  12.013  0.00  0.00    -0.273 OA
ATOM     72  N   VAL A   5      21.575  22.362   9.833  0.00  0.00    -0.297 N 
ATOM     73  H   VAL A   5      20.952  22.099   9.043  0.00  0.00    +0.150 HD
BRANCH  70  74
ATOM     74  CA  VAL A   4      20.175  20.881  11.186  0.00  0.00    +0.149 C 
BRANCH  74  77
ATOM     75  C   GLU A   3      18.449  22.531  10.799  0.00  0.00    +0.241 C 
ATOM     76  O   GLU A   3      18.773  23.139  11.815  0.00  0.00    -0.273 OA
ATOM     77  N   VAL A   4      19.056  21.407  10.413  0.00  0.00    -0.297 N 
ATOM     78  H   VAL A   4      18.731  20.906   9.561  0.00  0.00    +0.150 HD
BRANCH  75  79
ATOM     79  CA  GLU A   3      17.312  23.037   9.912  0.00  0.00    +0.149 C 
BRANCH  79  82
ATOM     80  C   LEU A   2      18.668  23.478   7.957  0.00  0.00    +0.241 C 
ATOM     81  O   LEU A   2      19.338  24.294   8.591  0.00  0.00    -0.273 OA
ATOM     82  N   GLU A   3      17.649  22.825   8.512  0.00  0.00    -0.297 N 
ATOM     83  H   GLU A   3      17.090  22.159   7.941  0.00  0.00    +0.150 HD
BRANCH  80  84
ATOM     84  CA  LEU A   2      18.981  23.167   6.490  0.00  0.00    +0.149 C 
BRANCH  84  87
ATOM     85  C   CYS A   1      19.354  20.782   6.702  0.00  0.00    +0.239 C 
ATOM     86  O   CYS A   1      20.265  20.967   7.511  0.00  0.00    -0.274 OA
ATOM     87  N   LEU A   2      18.656  21.780   6.161  0.00  0.00    -0.297 N 
ATOM     88  H   LEU A   2      17.878  21.572   5.503  0.00  0.00    +0.150 HD
BRANCH  85  89
ATOM     89  CA  CYS A   1      18.972  19.355   6.312  0.00  0.00    +0.156 C 
BRANCH  89  90
ATOM     90  CB  CYS A   1      19.587  19.001   4.953  0.00  0.00    +0.095 C 
ATOM     91  SG  CYS A   1      19.045  19.985   3.557  0.00  0.00    -0.080 S 
ENDBRANCH  89  90
BRANCH  89  92
ATOM     92  N   CYS A   1      17.534  19.112   6.325  0.00  0.00    -0.237 NA
ATOM     93  H   CYS A   1      17.048  18.765   5.473  0.00  0.00    +0.142 HD
ENDBRANCH  89  92
ENDBRANCH  85  89
ENDBRANCH  84  87
BRANCH  84  94
ATOM     94  CB  LEU A   2      18.228  24.131   5.571  0.00  0.00    +0.029 C 
BRANCH  94  95
ATOM     95  CG  LEU A   2      18.804  25.550   5.484  0.00  0.00    +0.002 C 
ATOM     96  CD2 LEU A   2      20.203  25.520   4.864  0.00  0.00    +0.000 C 
ATOM     97  CD1 LEU A   2      17.881  26.410   4.625  0.00  0.00    +0.000 C 
ENDBRANCH  94  95
ENDBRANCH  84  94
ENDBRANCH  80  84
ENDBRANCH  79  82
BRANCH  79  98
ATOM     98  CB  GLU A   3      15.996  22.330  10.258  0.00  0.00    +0.041 C 
BRANCH  98  99
ATOM     99  CG  GLU A   3      14.805  22.918   9.509  0.00  0.00    +0.116 C 
BRANCH  99 100
ATOM    100  CD  GLU A   3      13.467  22.440  10.041  0.00  0.00    +0.365 C 
ATOM    101  OE2 GLU A   3      13.441  21.697  11.041  0.00  0.00    -0.246 OA
ATOM    102  OE1 GLU A   3      12.436  22.823   9.448  0.00  0.00    -0.246 OA
ENDBRANCH  99 100
ENDBRANCH  98  99
ENDBRANCH  79  98
ENDBRANCH  75  79
ENDBRANCH  74  77
BRANCH  74 103
ATOM    103  CB  VAL A   4      20.577  19.462  10.721  0.00  0.00    +0.027 C 
ATOM    104  CG2 VAL A   4      21.793  18.985  11.499  0.00  0.00    +0.002 C 
ATOM    105  CG1 VAL A   4      19.413  18.500  10.941  0.00  0.00    +0.002 C 
ENDBRANCH  74 103
ENDBRANCH  70  74
ENDBRANCH  69  72
BRANCH  69 106
ATOM    106  CB  VAL A   5      22.716  23.791   8.145  0.00  0.00    +0.027 C 
ATOM    107  CG2 VAL A   5      23.684  24.971   8.011  0.00  0.00    +0.002 C 
ATOM    108  CG1 VAL A   5      23.190  22.660   7.248  0.00  0.00    +0.002 C 
ENDBRANCH  69 106
ENDBRANCH  65  69
ENDBRANCH  64  67
BRANCH  64 109
ATOM    109  CB  LEU A   6      19.519  26.576  11.405  0.00  0.00    +0.029 C 
BRANCH 109 110
ATOM    110  CG  LEU A   6      19.087  27.752  12.282  0.00  0.00    +0.002 C 
ATOM    111  CD2 LEU A   6      17.625  28.055  12.021  0.00  0.00    +0.000 C 
ATOM    112  CD1 LEU A   6      19.955  28.976  11.989  0.00  0.00    +0.000 C 
ENDBRANCH 109 110
ENDBRANCH  64 109
ENDBRANCH  60  64
ENDBRANCH  59  62
BRANCH  59 113
ATOM    113  CB  VAL A   7      20.716  22.917  15.191  0.00  0.00    +0.027 C 
ATOM    114  CG2 VAL A   7      21.226  22.463  16.539  0.00  0.00    +0.002 C 
ATOM    115  CG1 VAL A   7      19.188  23.015  15.209  0.00  0.00    +0.002 C 
ENDBRANCH  59 113
ENDBRANCH  55  59
ENDBRANCH   1  57
BRANCH   1 116
ATOM    116  CB  ARG A   8      25.442  22.631  12.901  0.00  0.00    +0.033 C 
BRANCH 116 117
ATOM    117  CG  ARG A   8      25.155  21.162  13.150  0.00  0.00    +0.045 C 
BRANCH 117 118
ATOM    118  CD  ARG A   8      25.566  20.300  11.981  0.00  0.00    +0.174 C 
BRANCH 118 119
ATOM    119  NE  ARG A   8      25.664  18.909  12.409  0.00  0.00    -0.265 N 
ATOM    120  HE  ARG A   8      25.187  18.638  13.292  0.00  0.00    +0.259 HD
ATOM    121  CZ  ARG A   8      26.322  17.967  11.746  0.00  0.00    +0.342 C 
ATOM    122  NH2 ARG A   8      26.418  16.752  12.264  0.00  0.00    -0.292 N 
ATOM    123 HH21 ARG A   8      25.979  16.543  13.183  0.00  0.00    +0.255 HD
ATOM    124 HH22 ARG A   8      26.932  16.007  11.751  0.00  0.00    +0.255 HD
ATOM    125  NH1 ARG A   8      26.932  18.257  10.602  0.00  0.00    -0.292 N 
ATOM    126 HH11 ARG A   8      26.895  19.225  10.224  0.00  0.00    +0.255 HD
ATOM    127 HH12 ARG A   8      27.447  17.516  10.085  0.00  0.00    +0.255 HD
ENDBRANCH 118 119
ENDBRANCH 117 118
ENDBRANCH 116 117
ENDBRANCH   1 116
TORSDOF 51
REMARK  Name = ../refined-set-2016/1nq7/1nq7_pocket.pdb
REMARK  235 active torsions:
REMARK  status: ('A' for Active; 'I' for Inactive)
REMARK    1  A    between atoms: _1  and  _3
REMARK    2  A    between atoms: _3  and  _4
REMARK    3  A    between atoms: _3  and  _6
REMARK    4  A    between atoms: _6  and  _7
REMARK    5  A    between atoms: _12  and  _14
REMARK    6  A    between atoms: _14  and  _15
REMARK    7  A    between atoms: _14  and  _17
REMARK    8  A    between atoms: _17  and  _18
REMARK    9  A    between atoms: _21  and  _23
REMARK   10  A    between atoms: _23  and  _24
REMARK   11  A    between atoms: _23  and  _26
REMARK   12  A    between atoms: _28  and  _30
REMARK   13  A    between atoms: _30  and  _31
REMARK   14  A    between atoms: _30  and  _33
REMARK   15  A    between atoms: _33  and  _34
REMARK   16  A    between atoms: _34  and  _35
REMARK   17  A    between atoms: _40  and  _42
REMARK   18  A    between atoms: _42  and  _43
REMARK   19  A    between atoms: _42  and  _45
REMARK   20  A    between atoms: _45  and  _46
REMARK   21  A    between atoms: _51  and  _52
REMARK   22  A    between atoms: _54  and  _56
REMARK   23  A    between atoms: _56  and  _57
REMARK   24  A    between atoms: _56  and  _59
REMARK   25  A    between atoms: _59  and  _60
REMARK   26  A    between atoms: _63  and  _65
REMARK   27  A    between atoms: _65  and  _66
REMARK   28  A    between atoms: _65  and  _68
REMARK   29  A    between atoms: _68  and  _69
REMARK   30  A    between atoms: _72  and  _74
REMARK   31  A    between atoms: _74  and  _75
REMARK   32  A    between atoms: _74  and  _77
REMARK   33  A    between atoms: _77  and  _78
REMARK   34  A    between atoms: _81  and  _83
REMARK   35  A    between atoms: _83  and  _84
REMARK   36  A    between atoms: _83  and  _86
REMARK   37  A    between atoms: _86  and  _87
REMARK   38  A    between atoms: _97  and  _99
REMARK   39  A    between atoms: _99  and  _100
REMARK   40  A    between atoms: _99  and  _102
REMARK   41  A    between atoms: _102  and  _103
REMARK   42  A    between atoms: _103  and  _104
REMARK   43  A    between atoms: _109  and  _111
REMARK   44  A    between atoms: _111  and  _112
REMARK   45  A    between atoms: _111  and  _114
REMARK   46  A    between atoms: _116  and  _118
REMARK   47  A    between atoms: _118  and  _119
REMARK   48  A    between atoms: _122  and  _124
REMARK   49  A    between atoms: _124  and  _125
REMARK   50  A    between atoms: _124  and  _127
REMARK   51  A    between atoms: _127  and  _128
REMARK   52  A    between atoms: _128  and  _129
REMARK   53  A    between atoms: _134  and  _136
REMARK   54  A    between atoms: _136  and  _137
REMARK   55  A    between atoms: _136  and  _139
REMARK   56  A    between atoms: _139  and  _140
REMARK   57  A    between atoms: _143  and  _145
REMARK   58  A    between atoms: _145  and  _146
REMARK   59  A    between atoms: _145  and  _148
REMARK   60  A    between atoms: _148  and  _149
REMARK   61  A    between atoms: _154  and  _156
REMARK   62  A    between atoms: _156  and  _157
REMARK   63  A    between atoms: _160  and  _162
REMARK   64  A    between atoms: _162  and  _163
REMARK   65  A    between atoms: _162  and  _165
REMARK   66  A    between atoms: _165  and  _166
REMARK   67  A    between atoms: _169  and  _171
REMARK   68  A    between atoms: _171  and  _172
REMARK   69  A    between atoms: _171  and  _174
REMARK   70  A    between atoms: _174  and  _175
REMARK   71  A    between atoms: _180  and  _181
REMARK   72  A    between atoms: _183  and  _185
REMARK   73  A    between atoms: _185  and  _186
REMARK   74  A    between atoms: _185  and  _188
REMARK   75  A    between atoms: _191  and  _193
REMARK   76  A    between atoms: _193  and  _194
REMARK   77  A    between atoms: _193  and  _196
REMARK   78  A    between atoms: _198  and  _200
REMARK   79  A    between atoms: _200  and  _201
REMARK   80  A    between atoms: _200  and  _203
REMARK   81  A    between atoms: _203  and  _204
REMARK   82  A    between atoms: _207  and  _209
REMARK   83  A    between atoms: _209  and  _210
REMARK   84  A    between atoms: _209  and  _212
REMARK   85  A    between atoms: _212  and  _213
REMARK   86  A    between atoms: _213  and  _214
REMARK   87  A    between atoms: _217  and  _219
REMARK   88  A    between atoms: _219  and  _220
REMARK   89  A    between atoms: _219  and  _222
REMARK   90  A    between atoms: _225  and  _227
REMARK   91  A    between atoms: _227  and  _228
REMARK   92  A    between atoms: _227  and  _230
REMARK   93  A    between atoms: _233  and  _235
REMARK   94  A    between atoms: _235  and  _236
REMARK   95  A    between atoms: _235  and  _238
REMARK   96  A    between atoms: _238  and  _239
REMARK   97  A    between atoms: _242  and  _244
REMARK   98  A    between atoms: _244  and  _245
REMARK   99  A    between atoms: _244  and  _247
REMARK  100  A    between atoms: _250  and  _252
REMARK  101  A    between atoms: _252  and  _253
REMARK  102  A    between atoms: _252  and  _255
REMARK  103  A    between atoms: _255  and  _256
REMARK  104  A    between atoms: _256  and  _257
REMARK  105  A    between atoms: _257  and  _258
REMARK  106  A    between atoms: _267  and  _269
REMARK  107  A    between atoms: _269  and  _270
REMARK  108  A    between atoms: _269  and  _272
REMARK  109  A    between atoms: _272  and  _273
REMARK  110  A    between atoms: _273  and  _274
REMARK  111  A    between atoms: _276  and  _278
REMARK  112  A    between atoms: _278  and  _279
REMARK  113  A    between atoms: _278  and  _281
REMARK  114  A    between atoms: _283  and  _285
REMARK  115  A    between atoms: _285  and  _286
REMARK  116  A    between atoms: _285  and  _288
REMARK  117  A    between atoms: _288  and  _289
REMARK  118  A    between atoms: _289  and  _290
REMARK  119  A    between atoms: _290  and  _291
REMARK  120  A    between atoms: _300  and  _302
REMARK  121  A    between atoms: _302  and  _303
REMARK  122  A    between atoms: _306  and  _308
REMARK  123  A    between atoms: _308  and  _309
REMARK  124  A    between atoms: _308  and  _311
REMARK  125  A    between atoms: _311  and  _312
REMARK  126  A    between atoms: _318  and  _320
REMARK  127  A    between atoms: _320  and  _321
REMARK  128  A    between atoms: _320  and  _323
REMARK  129  A    between atoms: _326  and  _328
REMARK  130  A    between atoms: _328  and  _329
REMARK  131  A    between atoms: _328  and  _331
REMARK  132  A    between atoms: _331  and  _332
REMARK  133  A    between atoms: _335  and  _337
REMARK  134  A    between atoms: _337  and  _338
REMARK  135  A    between atoms: _337  and  _340
REMARK  136  A    between atoms: _340  and  _341
REMARK  137  A    between atoms: _347  and  _349
REMARK  138  A    between atoms: _349  and  _350
REMARK  139  A    between atoms: _349  and  _352
REMARK  140  A    between atoms: _352  and  _353
REMARK  141  A    between atoms: _353  and  _354
REMARK  142  A    between atoms: _357  and  _359
REMARK  143  A    between atoms: _359  and  _360
REMARK  144  A    between atoms: _362  and  _364
REMARK  145  A    between atoms: _364  and  _365
REMARK  146  A    between atoms: _367  and  _369
REMARK  147  A    between atoms: _369  and  _370
REMARK  148  A    between atoms: _372  and  _374
REMARK  149  A    between atoms: _374  and  _375
REMARK  150  A    between atoms: _374  and  _377
REMARK  151  A    between atoms: _377  and  _378
REMARK  152  A    between atoms: _378  and  _379
REMARK  153  A    between atoms: _381  and  _383
REMARK  154  A    between atoms: _383  and  _384
REMARK  155  A    between atoms: _383  and  _386
REMARK  156  A    between atoms: _386  and  _387
REMARK  157  A    between atoms: _387  and  _388
REMARK  158  A    between atoms: _390  and  _392
REMARK  159  A    between atoms: _392  and  _393
REMARK  160  A    between atoms: _392  and  _395
REMARK  161  A    between atoms: _395  and  _396
REMARK  162  A    between atoms: _402  and  _404
REMARK  163  A    between atoms: _404  and  _405
REMARK  164  A    between atoms: _404  and  _407
REMARK  165  A    between atoms: _407  and  _408
REMARK  166  A    between atoms: _411  and  _413
REMARK  167  A    between atoms: _413  and  _414
REMARK  168  A    between atoms: _413  and  _416
REMARK  169  A    between atoms: _416  and  _417
REMARK  170  A    between atoms: _419  and  _421
REMARK  171  A    between atoms: _421  and  _422
REMARK  172  A    between atoms: _421  and  _424
REMARK  173  A    between atoms: _424  and  _425
REMARK  174  A    between atoms: _428  and  _430
REMARK  175  A    between atoms: _430  and  _431
REMARK  176  A    between atoms: _430  and  _433
REMARK  177  A    between atoms: _436  and  _438
REMARK  178  A    between atoms: _438  and  _439
REMARK  179  A    between atoms: _438  and  _441
REMARK  180  A    between atoms: _441  and  _442
REMARK  181  A    between atoms: _447  and  _449
REMARK  182  A    between atoms: _449  and  _450
REMARK  183  A    between atoms: _449  and  _452
REMARK  184  A    between atoms: _452  and  _453
REMARK  185  A    between atoms: _453  and  _454
REMARK  186  A    between atoms: _457  and  _459
REMARK  187  A    between atoms: _459  and  _460
REMARK  188  A    between atoms: _463  and  _465
REMARK  189  A    between atoms: _465  and  _466
REMARK  190  A    between atoms: _465  and  _468
REMARK  191  A    between atoms: _468  and  _469
REMARK  192  A    between atoms: _475  and  _477
REMARK  193  A    between atoms: _477  and  _478
REMARK  194  A    between atoms: _477  and  _480
REMARK  195  A    between atoms: _480  and  _481
REMARK  196  A    between atoms: _487  and  _489
REMARK  197  A    between atoms: _489  and  _490
REMARK  198  A    between atoms: _489  and  _492
REMARK  199  A    between atoms: _492  and  _493
REMARK  200  A    between atoms: _496  and  _498
REMARK  201  A    between atoms: _498  and  _499
REMARK  202  A    between atoms: _498  and  _501
REMARK  203  A    between atoms: _504  and  _506
REMARK  204  A    between atoms: _506  and  _507
REMARK  205  A    between atoms: _506  and  _509
REMARK  206  A    between atoms: _511  and  _513
REMARK  207  A    between atoms: _513  and  _514
REMARK  208  A    between atoms: _513  and  _516
REMARK  209  A    between atoms: _516  and  _517
REMARK  210  A    between atoms: _522  and  _524
REMARK  211  A    between atoms: _524  and  _525
REMARK  212  A    between atoms: _524  and  _527
REMARK  213  A    between atoms: _527  and  _528
REMARK  214  A    between atoms: _531  and  _533
REMARK  215  A    between atoms: _533  and  _534
REMARK  216  A    between atoms: _533  and  _536
REMARK  217  A    between atoms: _536  and  _537
REMARK  218  A    between atoms: _542  and  _544
REMARK  219  A    between atoms: _544  and  _545
REMARK  220  A    between atoms: _547  and  _549
REMARK  221  A    between atoms: _549  and  _550
REMARK  222  A    between atoms: _549  and  _552
REMARK  223  A    between atoms: _552  and  _553
REMARK  224  A    between atoms: _553  and  _554
REMARK  225  A    between atoms: _554  and  _555
REMARK  226  A    between atoms: _555  and  _556
REMARK  227  A    between atoms: _560  and  _562
REMARK  228  A    between atoms: _562  and  _563
REMARK  229  A    between atoms: _562  and  _565
REMARK  230  A    between atoms: _565  and  _566
REMARK  231  A    between atoms: _571  and  _572
REMARK  232  A    between atoms: _574  and  _576
REMARK  233  A    between atoms: _576  and  _577
REMARK  234  A    between atoms: _576  and  _579
REMARK  235  A    between atoms: _579  and  _580
REMARK                            x       y       z     vdW  Elec       q    Type
REMARK                         _______ _______ _______ _____ _____    ______ ____
ROOT
ATOM      1  CA  PHE A   3      31.852  32.225   7.453  0.00  0.00    +0.153 C 
ENDROOT
BRANCH   1   4
ATOM      2  C   LEU A   2      31.477  31.546   9.769  0.00  0.00    +0.241 C 
ATOM      3  O   LEU A   2      30.523  30.825   9.465  0.00  0.00    -0.273 OA
ATOM      4  N   PHE A   3      32.164  32.252   8.876  0.00  0.00    -0.297 N 
ATOM      5  H   PHE A   3      32.953  32.845   9.205  0.00  0.00    +0.150 HD
BRANCH   2   6
ATOM      6  CA  LEU A   2      31.920  31.683  11.225  0.00  0.00    +0.149 C 
BRANCH   6   8
ATOM      7  C   VAL A   1      30.413  33.461  11.892  0.00  0.00    +0.238 C 
ATOM      8  N   LEU A   2      30.809  32.199  12.004  0.00  0.00    -0.297 N 
ATOM      9  H   LEU A   2      30.313  31.567  12.664  0.00  0.00    +0.150 HD
ATOM     10  O   VAL A   1      30.962  34.269  11.143  0.00  0.00    -0.274 OA
BRANCH   7  11
ATOM     11  CA  VAL A   1      29.227  33.873  12.758  0.00  0.00    +0.145 C 
BRANCH  11  12
ATOM     12  CB  VAL A   1      27.910  33.587  11.993  0.00  0.00    +0.025 C 
ATOM     13  CG2 VAL A   1      27.656  32.088  11.931  0.00  0.00    +0.002 C 
ATOM     14  CG1 VAL A   1      27.962  34.194  10.596  0.00  0.00    +0.002 C 
ENDBRANCH  11  12
BRANCH  11  15
ATOM     15  N   VAL A   1      29.315  35.282  13.113  0.00  0.00    -0.238 NA
ATOM     16  H   VAL A   1      29.431  35.988  12.358  0.00  0.00    +0.142 HD
ENDBRANCH  11  15
ENDBRANCH   7  11
ENDBRANCH   6   8
BRANCH   6  17
ATOM     17  CB  LEU A   2      32.353  30.324  11.792  0.00  0.00    +0.029 C 
BRANCH  17  18
ATOM     18  CG  LEU A   2      33.598  29.651  11.214  0.00  0.00    +0.002 C 
ATOM     19  CD2 LEU A   2      33.921  28.424  12.060  0.00  0.00    +0.000 C 
ATOM     20  CD1 LEU A   2      34.778  30.615  11.205  0.00  0.00    +0.000 C 
ENDBRANCH  17  18
ENDBRANCH   6  17
ENDBRANCH   2   6
ENDBRANCH   1   4
BRANCH   1  21
ATOM     21  C   PHE A   3      33.155  32.297   6.670  0.00  0.00    +0.241 C 
ATOM     22  O   PHE A   3      33.918  33.251   6.811  0.00  0.00    -0.273 OA
ATOM     23  N   GLU A   4      33.400  31.286   5.843  0.00  0.00    -0.297 N 
ATOM     24  H   GLU A   4      32.696  30.525   5.761  0.00  0.00    +0.150 HD
BRANCH  23  25
ATOM     25  CA  GLU A   4      34.617  31.204   5.048  0.00  0.00    +0.149 C 
BRANCH  25  26
ATOM     26  C   GLU A   4      35.888  31.337   5.891  0.00  0.00    +0.241 C 
ATOM     27  N   GLY A   5      35.926  30.622   7.012  0.00  0.00    -0.296 N 
ATOM     28  H   GLY A   5      35.101  30.056   7.296  0.00  0.00    +0.150 HD
ATOM     29  O   GLU A   4      36.806  32.083   5.548  0.00  0.00    -0.273 OA
BRANCH  27  30
ATOM     30  CA  GLY A   5      37.121  30.631   7.841  0.00  0.00    +0.163 C 
BRANCH  30  31
ATOM     31  C   GLY A   5      37.288  31.610   8.986  0.00  0.00    +0.229 C 
ATOM     32  O   GLY A   5      38.173  31.416   9.817  0.00  0.00    -0.286 OA
ENDBRANCH  30  31
ENDBRANCH  27  30
ENDBRANCH  25  26
BRANCH  25  33
ATOM     33  CB  GLU A   4      34.606  32.242   3.912  0.00  0.00    +0.041 C 
BRANCH  33  34
ATOM     34  CG  GLU A   4      33.486  32.011   2.892  0.00  0.00    +0.116 C 
BRANCH  34  35
ATOM     35  CD  GLU A   4      33.641  32.831   1.621  0.00  0.00    +0.365 C 
ATOM     36  OE2 GLU A   4      34.246  33.921   1.678  0.00  0.00    -0.246 OA
ATOM     37  OE1 GLU A   4      33.142  32.393   0.563  0.00  0.00    -0.246 OA
ENDBRANCH  34  35
ENDBRANCH  33  34
ENDBRANCH  25  33
ENDBRANCH  23  25
ENDBRANCH   1  21
BRANCH   1  38
ATOM     38  CB  PHE A   3      30.960  33.417   7.078  0.00  0.00    +0.055 C 
BRANCH  38  39
ATOM     39  CG  PHE A   3      30.533  33.426   5.639  0.00  0.00    -0.020 A 
ATOM     40  CD2 PHE A   3      29.507  32.598   5.193  0.00  0.00    -0.004 A 
ATOM     41  CE2 PHE A   3      29.127  32.593   3.854  0.00  0.00    -0.000 A 
ATOM     42  CZ  PHE A   3      29.779  33.420   2.942  0.00  0.00    -0.000 A 
ATOM     43  CE1 PHE A   3      30.803  34.250   3.376  0.00  0.00    -0.000 A 
ATOM     44  CD1 PHE A   3      31.176  34.248   4.718  0.00  0.00    -0.004 A 
ENDBRANCH  38  39
ENDBRANCH   1  38
TORSDOF 18
REMARK  Name = ../refined-set-2016/1nq7/1nq7_pocket.pdb
REMARK  235 active torsions:
REMARK  status: ('A' for Active; 'I' for Inactive)
REMARK    1  A    between atoms: _1  and  _3
REMARK    2  A    between atoms: _3  and  _4
REMARK    3  A    between atoms: _3  and  _6
REMARK    4  A    between atoms: _6  and  _7
REMARK    5  A    between atoms: _12  and  _14
REMARK    6  A    between atoms: _14  and  _15
REMARK    7  A    between atoms: _14  and  _17
REMARK    8  A    between atoms: _17  and  _18
REMARK    9  A    between atoms: _21  and  _23
REMARK   10  A    between atoms: _23  and  _24
REMARK   11  A    between atoms: _23  and  _26
REMARK   12  A    between atoms: _28  and  _30
REMARK   13  A    between atoms: _30  and  _31
REMARK   14  A    between atoms: _30  and  _33
REMARK   15  A    between atoms: _33  and  _34
REMARK   16  A    between atoms: _34  and  _35
REMARK   17  A    between atoms: _40  and  _42
REMARK   18  A    between atoms: _42  and  _43
REMARK   19  A    between atoms: _42  and  _45
REMARK   20  A    between atoms: _45  and  _46
REMARK   21  A    between atoms: _51  and  _52
REMARK   22  A    between atoms: _54  and  _56
REMARK   23  A    between atoms: _56  and  _57
REMARK   24  A    between atoms: _56  and  _59
REMARK   25  A    between atoms: _59  and  _60
REMARK   26  A    between atoms: _63  and  _65
REMARK   27  A    between atoms: _65  and  _66
REMARK   28  A    between atoms: _65  and  _68
REMARK   29  A    between atoms: _68  and  _69
REMARK   30  A    between atoms: _72  and  _74
REMARK   31  A    between atoms: _74  and  _75
REMARK   32  A    between atoms: _74  and  _77
REMARK   33  A    between atoms: _77  and  _78
REMARK   34  A    between atoms: _81  and  _83
REMARK   35  A    between atoms: _83  and  _84
REMARK   36  A    between atoms: _83  and  _86
REMARK   37  A    between atoms: _86  and  _87
REMARK   38  A    between atoms: _97  and  _99
REMARK   39  A    between atoms: _99  and  _100
REMARK   40  A    between atoms: _99  and  _102
REMARK   41  A    between atoms: _102  and  _103
REMARK   42  A    between atoms: _103  and  _104
REMARK   43  A    between atoms: _109  and  _111
REMARK   44  A    between atoms: _111  and  _112
REMARK   45  A    between atoms: _111  and  _114
REMARK   46  A    between atoms: _116  and  _118
REMARK   47  A    between atoms: _118  and  _119
REMARK   48  A    between atoms: _122  and  _124
REMARK   49  A    between atoms: _124  and  _125
REMARK   50  A    between atoms: _124  and  _127
REMARK   51  A    between atoms: _127  and  _128
REMARK   52  A    between atoms: _128  and  _129
REMARK   53  A    between atoms: _134  and  _136
REMARK   54  A    between atoms: _136  and  _137
REMARK   55  A    between atoms: _136  and  _139
REMARK   56  A    between atoms: _139  and  _140
REMARK   57  A    between atoms: _143  and  _145
REMARK   58  A    between atoms: _145  and  _146
REMARK   59  A    between atoms: _145  and  _148
REMARK   60  A    between atoms: _148  and  _149
REMARK   61  A    between atoms: _154  and  _156
REMARK   62  A    between atoms: _156  and  _157
REMARK   63  A    between atoms: _160  and  _162
REMARK   64  A    between atoms: _162  and  _163
REMARK   65  A    between atoms: _162  and  _165
REMARK   66  A    between atoms: _165  and  _166
REMARK   67  A    between atoms: _169  and  _171
REMARK   68  A    between atoms: _171  and  _172
REMARK   69  A    between atoms: _171  and  _174
REMARK   70  A    between atoms: _174  and  _175
REMARK   71  A    between atoms: _180  and  _181
REMARK   72  A    between atoms: _183  and  _185
REMARK   73  A    between atoms: _185  and  _186
REMARK   74  A    between atoms: _185  and  _188
REMARK   75  A    between atoms: _191  and  _193
REMARK   76  A    between atoms: _193  and  _194
REMARK   77  A    between atoms: _193  and  _196
REMARK   78  A    between atoms: _198  and  _200
REMARK   79  A    between atoms: _200  and  _201
REMARK   80  A    between atoms: _200  and  _203
REMARK   81  A    between atoms: _203  and  _204
REMARK   82  A    between atoms: _207  and  _209
REMARK   83  A    between atoms: _209  and  _210
REMARK   84  A    between atoms: _209  and  _212
REMARK   85  A    between atoms: _212  and  _213
REMARK   86  A    between atoms: _213  and  _214
REMARK   87  A    between atoms: _217  and  _219
REMARK   88  A    between atoms: _219  and  _220
REMARK   89  A    between atoms: _219  and  _222
REMARK   90  A    between atoms: _225  and  _227
REMARK   91  A    between atoms: _227  and  _228
REMARK   92  A    between atoms: _227  and  _230
REMARK   93  A    between atoms: _233  and  _235
REMARK   94  A    between atoms: _235  and  _236
REMARK   95  A    between atoms: _235  and  _238
REMARK   96  A    between atoms: _238  and  _239
REMARK   97  A    between atoms: _242  and  _244
REMARK   98  A    between atoms: _244  and  _245
REMARK   99  A    between atoms: _244  and  _247
REMARK  100  A    between atoms: _250  and  _252
REMARK  101  A    between atoms: _252  and  _253
REMARK  102  A    between atoms: _252  and  _255
REMARK  103  A    between atoms: _255  and  _256
REMARK  104  A    between atoms: _256  and  _257
REMARK  105  A    between atoms: _257  and  _258
REMARK  106  A    between atoms: _267  and  _269
REMARK  107  A    between atoms: _269  and  _270
REMARK  108  A    between atoms: _269  and  _272
REMARK  109  A    between atoms: _272  and  _273
REMARK  110  A    between atoms: _273  and  _274
REMARK  111  A    between atoms: _276  and  _278
REMARK  112  A    between atoms: _278  and  _279
REMARK  113  A    between atoms: _278  and  _281
REMARK  114  A    between atoms: _283  and  _285
REMARK  115  A    between atoms: _285  and  _286
REMARK  116  A    between atoms: _285  and  _288
REMARK  117  A    between atoms: _288  and  _289
REMARK  118  A    between atoms: _289  and  _290
REMARK  119  A    between atoms: _290  and  _291
REMARK  120  A    between atoms: _300  and  _302
REMARK  121  A    between atoms: _302  and  _303
REMARK  122  A    between atoms: _306  and  _308
REMARK  123  A    between atoms: _308  and  _309
REMARK  124  A    between atoms: _308  and  _311
REMARK  125  A    between atoms: _311  and  _312
REMARK  126  A    between atoms: _318  and  _320
REMARK  127  A    between atoms: _320  and  _321
REMARK  128  A    between atoms: _320  and  _323
REMARK  129  A    between atoms: _326  and  _328
REMARK  130  A    between atoms: _328  and  _329
REMARK  131  A    between atoms: _328  and  _331
REMARK  132  A    between atoms: _331  and  _332
REMARK  133  A    between atoms: _335  and  _337
REMARK  134  A    between atoms: _337  and  _338
REMARK  135  A    between atoms: _337  and  _340
REMARK  136  A    between atoms: _340  and  _341
REMARK  137  A    between atoms: _347  and  _349
REMARK  138  A    between atoms: _349  and  _350
REMARK  139  A    between atoms: _349  and  _352
REMARK  140  A    between atoms: _352  and  _353
REMARK  141  A    between atoms: _353  and  _354
REMARK  142  A    between atoms: _357  and  _359
REMARK  143  A    between atoms: _359  and  _360
REMARK  144  A    between atoms: _362  and  _364
REMARK  145  A    between atoms: _364  and  _365
REMARK  146  A    between atoms: _367  and  _369
REMARK  147  A    between atoms: _369  and  _370
REMARK  148  A    between atoms: _372  and  _374
REMARK  149  A    between atoms: _374  and  _375
REMARK  150  A    between atoms: _374  and  _377
REMARK  151  A    between atoms: _377  and  _378
REMARK  152  A    between atoms: _378  and  _379
REMARK  153  A    between atoms: _381  and  _383
REMARK  154  A    between atoms: _383  and  _384
REMARK  155  A    between atoms: _383  and  _386
REMARK  156  A    between atoms: _386  and  _387
REMARK  157  A    between atoms: _387  and  _388
REMARK  158  A    between atoms: _390  and  _392
REMARK  159  A    between atoms: _392  and  _393
REMARK  160  A    between atoms: _392  and  _395
REMARK  161  A    between atoms: _395  and  _396
REMARK  162  A    between atoms: _402  and  _404
REMARK  163  A    between atoms: _404  and  _405
REMARK  164  A    between atoms: _404  and  _407
REMARK  165  A    between atoms: _407  and  _408
REMARK  166  A    between atoms: _411  and  _413
REMARK  167  A    between atoms: _413  and  _414
REMARK  168  A    between atoms: _413  and  _416
REMARK  169  A    between atoms: _416  and  _417
REMARK  170  A    between atoms: _419  and  _421
REMARK  171  A    between atoms: _421  and  _422
REMARK  172  A    between atoms: _421  and  _424
REMARK  173  A    between atoms: _424  and  _425
REMARK  174  A    between atoms: _428  and  _430
REMARK  175  A    between atoms: _430  and  _431
REMARK  176  A    between atoms: _430  and  _433
REMARK  177  A    between atoms: _436  and  _438
REMARK  178  A    between atoms: _438  and  _439
REMARK  179  A    between atoms: _438  and  _441
REMARK  180  A    between atoms: _441  and  _442
REMARK  181  A    between atoms: _447  and  _449
REMARK  182  A    between atoms: _449  and  _450
REMARK  183  A    between atoms: _449  and  _452
REMARK  184  A    between atoms: _452  and  _453
REMARK  185  A    between atoms: _453  and  _454
REMARK  186  A    between atoms: _457  and  _459
REMARK  187  A    between atoms: _459  and  _460
REMARK  188  A    between atoms: _463  and  _465
REMARK  189  A    between atoms: _465  and  _466
REMARK  190  A    between atoms: _465  and  _468
REMARK  191  A    between atoms: _468  and  _469
REMARK  192  A    between atoms: _475  and  _477
REMARK  193  A    between atoms: _477  and  _478
REMARK  194  A    between atoms: _477  and  _480
REMARK  195  A    between atoms: _480  and  _481
REMARK  196  A    between atoms: _487  and  _489
REMARK  197  A    between atoms: _489  and  _490
REMARK  198  A    between atoms: _489  and  _492
REMARK  199  A    between atoms: _492  and  _493
REMARK  200  A    between atoms: _496  and  _498
REMARK  201  A    between atoms: _498  and  _499
REMARK  202  A    between atoms: _498  and  _501
REMARK  203  A    between atoms: _504  and  _506
REMARK  204  A    between atoms: _506  and  _507
REMARK  205  A    between atoms: _506  and  _509
REMARK  206  A    between atoms: _511  and  _513
REMARK  207  A    between atoms: _513  and  _514
REMARK  208  A    between atoms: _513  and  _516
REMARK  209  A    between atoms: _516  and  _517
REMARK  210  A    between atoms: _522  and  _524
REMARK  211  A    between atoms: _524  and  _525
REMARK  212  A    between atoms: _524  and  _527
REMARK  213  A    between atoms: _527  and  _528
REMARK  214  A    between atoms: _531  and  _533
REMARK  215  A    between atoms: _533  and  _534
REMARK  216  A    between atoms: _533  and  _536
REMARK  217  A    between atoms: _536  and  _537
REMARK  218  A    between atoms: _542  and  _544
REMARK  219  A    between atoms: _544  and  _545
REMARK  220  A    between atoms: _547  and  _549
REMARK  221  A    between atoms: _549  and  _550
REMARK  222  A    between atoms: _549  and  _552
REMARK  223  A    between atoms: _552  and  _553
REMARK  224  A    between atoms: _553  and  _554
REMARK  225  A    between atoms: _554  and  _555
REMARK  226  A    between atoms: _555  and  _556
REMARK  227  A    between atoms: _560  and  _562
REMARK  228  A    between atoms: _562  and  _563
REMARK  229  A    between atoms: _562  and  _565
REMARK  230  A    between atoms: _565  and  _566
REMARK  231  A    between atoms: _571  and  _572
REMARK  232  A    between atoms: _574  and  _576
REMARK  233  A    between atoms: _576  and  _577
REMARK  234  A    between atoms: _576  and  _579
REMARK  235  A    between atoms: _579  and  _580
REMARK                            x       y       z     vdW  Elec       q    Type
REMARK                         _______ _______ _______ _____ _____    ______ ____
ROOT
ATOM      1  C   GLY A   2      27.895  40.366  10.537  0.00  0.00    +0.243 C 
ATOM      2  N   MET A   3      26.667  40.733  10.872  0.00  0.00    -0.298 N 
ATOM      3  H   MET A   3      26.448  40.966  11.862  0.00  0.00    +0.150 HD
ATOM      4  O   GLY A   2      28.221  40.133   9.374  0.00  0.00    -0.273 OA
ENDROOT
BRANCH   1   5
ATOM      5  CA  GLY A   2      28.894  40.274  11.671  0.00  0.00    +0.176 C 
BRANCH   5   8
ATOM      6  C   GLY A   1      30.436  38.486  11.118  0.00  0.00    +0.240 C 
ATOM      7  O   GLY A   1      29.598  37.606  11.368  0.00  0.00    -0.274 OA
ATOM      8  N   GLY A   2      30.187  39.787  11.233  0.00  0.00    -0.295 N 
ATOM      9  H   GLY A   2      30.937  40.470  11.004  0.00  0.00    +0.150 HD
BRANCH   6  10
ATOM     10  CA  GLY A   1      31.831  38.123  10.655  0.00  0.00    +0.169 C 
BRANCH  10  11
ATOM     11  N   GLY A   1      32.260  36.858  11.217  0.00  0.00    -0.236 NA
ATOM     12  H   GLY A   1      31.573  36.086  11.329  0.00  0.00    +0.142 HD
ENDBRANCH  10  11
ENDBRANCH   6  10
ENDBRANCH   5   8
ENDBRANCH   1   5
BRANCH   2  13
ATOM     13  CA  MET A   3      25.626  40.811   9.864  0.00  0.00    +0.138 C 
BRANCH  13  14
ATOM     14  C   MET A   3      25.925  41.798   8.734  0.00  0.00    +0.227 C 
ATOM     15  O   MET A   3      25.415  41.640   7.625  0.00  0.00    -0.286 OA
ENDBRANCH  13  14
BRANCH  13  16
ATOM     16  CB  MET A   3      24.286  41.131  10.536  0.00  0.00    +0.039 C 
BRANCH  16  17
ATOM     17  CG  MET A   3      24.127  42.552  11.022  0.00  0.00    +0.060 C 
BRANCH  17  18
ATOM     18  SD  MET A   3      23.713  43.641   9.658  0.00  0.00    -0.139 S 
ATOM     19  CE  MET A   3      22.323  42.745   8.947  0.00  0.00    +0.069 C 
ENDBRANCH  17  18
ENDBRANCH  16  17
ENDBRANCH  13  16
ENDBRANCH   2  13
TORSDOF 9
REMARK  Name = ../refined-set-2016/1nq7/1nq7_pocket.pdb
REMARK  235 active torsions:
REMARK  status: ('A' for Active; 'I' for Inactive)
REMARK    1  A    between atoms: _1  and  _3
REMARK    2  A    between atoms: _3  and  _4
REMARK    3  A    between atoms: _3  and  _6
REMARK    4  A    between atoms: _6  and  _7
REMARK    5  A    between atoms: _12  and  _14
REMARK    6  A    between atoms: _14  and  _15
REMARK    7  A    between atoms: _14  and  _17
REMARK    8  A    between atoms: _17  and  _18
REMARK    9  A    between atoms: _21  and  _23
REMARK   10  A    between atoms: _23  and  _24
REMARK   11  A    between atoms: _23  and  _26
REMARK   12  A    between atoms: _28  and  _30
REMARK   13  A    between atoms: _30  and  _31
REMARK   14  A    between atoms: _30  and  _33
REMARK   15  A    between atoms: _33  and  _34
REMARK   16  A    between atoms: _34  and  _35
REMARK   17  A    between atoms: _40  and  _42
REMARK   18  A    between atoms: _42  and  _43
REMARK   19  A    between atoms: _42  and  _45
REMARK   20  A    between atoms: _45  and  _46
REMARK   21  A    between atoms: _51  and  _52
REMARK   22  A    between atoms: _54  and  _56
REMARK   23  A    between atoms: _56  and  _57
REMARK   24  A    between atoms: _56  and  _59
REMARK   25  A    between atoms: _59  and  _60
REMARK   26  A    between atoms: _63  and  _65
REMARK   27  A    between atoms: _65  and  _66
REMARK   28  A    between atoms: _65  and  _68
REMARK   29  A    between atoms: _68  and  _69
REMARK   30  A    between atoms: _72  and  _74
REMARK   31  A    between atoms: _74  and  _75
REMARK   32  A    between atoms: _74  and  _77
REMARK   33  A    between atoms: _77  and  _78
REMARK   34  A    between atoms: _81  and  _83
REMARK   35  A    between atoms: _83  and  _84
REMARK   36  A    between atoms: _83  and  _86
REMARK   37  A    between atoms: _86  and  _87
REMARK   38  A    between atoms: _97  and  _99
REMARK   39  A    between atoms: _99  and  _100
REMARK   40  A    between atoms: _99  and  _102
REMARK   41  A    between atoms: _102  and  _103
REMARK   42  A    between atoms: _103  and  _104
REMARK   43  A    between atoms: _109  and  _111
REMARK   44  A    between atoms: _111  and  _112
REMARK   45  A    between atoms: _111  and  _114
REMARK   46  A    between atoms: _116  and  _118
REMARK   47  A    between atoms: _118  and  _119
REMARK   48  A    between atoms: _122  and  _124
REMARK   49  A    between atoms: _124  and  _125
REMARK   50  A    between atoms: _124  and  _127
REMARK   51  A    between atoms: _127  and  _128
REMARK   52  A    between atoms: _128  and  _129
REMARK   53  A    between atoms: _134  and  _136
REMARK   54  A    between atoms: _136  and  _137
REMARK   55  A    between atoms: _136  and  _139
REMARK   56  A    between atoms: _139  and  _140
REMARK   57  A    between atoms: _143  and  _145
REMARK   58  A    between atoms: _145  and  _146
REMARK   59  A    between atoms: _145  and  _148
REMARK   60  A    between atoms: _148  and  _149
REMARK   61  A    between atoms: _154  and  _156
REMARK   62  A    between atoms: _156  and  _157
REMARK   63  A    between atoms: _160  and  _162
REMARK   64  A    between atoms: _162  and  _163
REMARK   65  A    between atoms: _162  and  _165
REMARK   66  A    between atoms: _165  and  _166
REMARK   67  A    between atoms: _169  and  _171
REMARK   68  A    between atoms: _171  and  _172
REMARK   69  A    between atoms: _171  and  _174
REMARK   70  A    between atoms: _174  and  _175
REMARK   71  A    between atoms: _180  and  _181
REMARK   72  A    between atoms: _183  and  _185
REMARK   73  A    between atoms: _185  and  _186
REMARK   74  A    between atoms: _185  and  _188
REMARK   75  A    between atoms: _191  and  _193
REMARK   76  A    between atoms: _193  and  _194
REMARK   77  A    between atoms: _193  and  _196
REMARK   78  A    between atoms: _198  and  _200
REMARK   79  A    between atoms: _200  and  _201
REMARK   80  A    between atoms: _200  and  _203
REMARK   81  A    between atoms: _203  and  _204
REMARK   82  A    between atoms: _207  and  _209
REMARK   83  A    between atoms: _209  and  _210
REMARK   84  A    between atoms: _209  and  _212
REMARK   85  A    between atoms: _212  and  _213
REMARK   86  A    between atoms: _213  and  _214
REMARK   87  A    between atoms: _217  and  _219
REMARK   88  A    between atoms: _219  and  _220
REMARK   89  A    between atoms: _219  and  _222
REMARK   90  A    between atoms: _225  and  _227
REMARK   91  A    between atoms: _227  and  _228
REMARK   92  A    between atoms: _227  and  _230
REMARK   93  A    between atoms: _233  and  _235
REMARK   94  A    between atoms: _235  and  _236
REMARK   95  A    between atoms: _235  and  _238
REMARK   96  A    between atoms: _238  and  _239
REMARK   97  A    between atoms: _242  and  _244
REMARK   98  A    between atoms: _244  and  _245
REMARK   99  A    between atoms: _244  and  _247
REMARK  100  A    between atoms: _250  and  _252
REMARK  101  A    between atoms: _252  and  _253
REMARK  102  A    between atoms: _252  and  _255
REMARK  103  A    between atoms: _255  and  _256
REMARK  104  A    between atoms: _256  and  _257
REMARK  105  A    between atoms: _257  and  _258
REMARK  106  A    between atoms: _267  and  _269
REMARK  107  A    between atoms: _269  and  _270
REMARK  108  A    between atoms: _269  and  _272
REMARK  109  A    between atoms: _272  and  _273
REMARK  110  A    between atoms: _273  and  _274
REMARK  111  A    between atoms: _276  and  _278
REMARK  112  A    between atoms: _278  and  _279
REMARK  113  A    between atoms: _278  and  _281
REMARK  114  A    between atoms: _283  and  _285
REMARK  115  A    between atoms: _285  and  _286
REMARK  116  A    between atoms: _285  and  _288
REMARK  117  A    between atoms: _288  and  _289
REMARK  118  A    between atoms: _289  and  _290
REMARK  119  A    between atoms: _290  and  _291
REMARK  120  A    between atoms: _300  and  _302
REMARK  121  A    between atoms: _302  and  _303
REMARK  122  A    between atoms: _306  and  _308
REMARK  123  A    between atoms: _308  and  _309
REMARK  124  A    between atoms: _308  and  _311
REMARK  125  A    between atoms: _311  and  _312
REMARK  126  A    between atoms: _318  and  _320
REMARK  127  A    between atoms: _320  and  _321
REMARK  128  A    between atoms: _320  and  _323
REMARK  129  A    between atoms: _326  and  _328
REMARK  130  A    between atoms: _328  and  _329
REMARK  131  A    between atoms: _328  and  _331
REMARK  132  A    between atoms: _331  and  _332
REMARK  133  A    between atoms: _335  and  _337
REMARK  134  A    between atoms: _337  and  _338
REMARK  135  A    between atoms: _337  and  _340
REMARK  136  A    between atoms: _340  and  _341
REMARK  137  A    between atoms: _347  and  _349
REMARK  138  A    between atoms: _349  and  _350
REMARK  139  A    between atoms: _349  and  _352
REMARK  140  A    between atoms: _352  and  _353
REMARK  141  A    between atoms: _353  and  _354
REMARK  142  A    between atoms: _357  and  _359
REMARK  143  A    between atoms: _359  and  _360
REMARK  144  A    between atoms: _362  and  _364
REMARK  145  A    between atoms: _364  and  _365
REMARK  146  A    between atoms: _367  and  _369
REMARK  147  A    between atoms: _369  and  _370
REMARK  148  A    between atoms: _372  and  _374
REMARK  149  A    between atoms: _374  and  _375
REMARK  150  A    between atoms: _374  and  _377
REMARK  151  A    between atoms: _377  and  _378
REMARK  152  A    between atoms: _378  and  _379
REMARK  153  A    between atoms: _381  and  _383
REMARK  154  A    between atoms: _383  and  _384
REMARK  155  A    between atoms: _383  and  _386
REMARK  156  A    between atoms: _386  and  _387
REMARK  157  A    between atoms: _387  and  _388
REMARK  158  A    between atoms: _390  and  _392
REMARK  159  A    between atoms: _392  and  _393
REMARK  160  A    between atoms: _392  and  _395
REMARK  161  A    between atoms: _395  and  _396
REMARK  162  A    between atoms: _402  and  _404
REMARK  163  A    between atoms: _404  and  _405
REMARK  164  A    between atoms: _404  and  _407
REMARK  165  A    between atoms: _407  and  _408
REMARK  166  A    between atoms: _411  and  _413
REMARK  167  A    between atoms: _413  and  _414
REMARK  168  A    between atoms: _413  and  _416
REMARK  169  A    between atoms: _416  and  _417
REMARK  170  A    between atoms: _419  and  _421
REMARK  171  A    between atoms: _421  and  _422
REMARK  172  A    between atoms: _421  and  _424
REMARK  173  A    between atoms: _424  and  _425
REMARK  174  A    between atoms: _428  and  _430
REMARK  175  A    between atoms: _430  and  _431
REMARK  176  A    between atoms: _430  and  _433
REMARK  177  A    between atoms: _436  and  _438
REMARK  178  A    between atoms: _438  and  _439
REMARK  179  A    between atoms: _438  and  _441
REMARK  180  A    between atoms: _441  and  _442
REMARK  181  A    between atoms: _447  and  _449
REMARK  182  A    between atoms: _449  and  _450
REMARK  183  A    between atoms: _449  and  _452
REMARK  184  A    between atoms: _452  and  _453
REMARK  185  A    between atoms: _453  and  _454
REMARK  186  A    between atoms: _457  and  _459
REMARK  187  A    between atoms: _459  and  _460
REMARK  188  A    between atoms: _463  and  _465
REMARK  189  A    between atoms: _465  and  _466
REMARK  190  A    between atoms: _465  and  _468
REMARK  191  A    between atoms: _468  and  _469
REMARK  192  A    between atoms: _475  and  _477
REMARK  193  A    between atoms: _477  and  _478
REMARK  194  A    between atoms: _477  and  _480
REMARK  195  A    between atoms: _480  and  _481
REMARK  196  A    between atoms: _487  and  _489
REMARK  197  A    between atoms: _489  and  _490
REMARK  198  A    between atoms: _489  and  _492
REMARK  199  A    between atoms: _492  and  _493
REMARK  200  A    between atoms: _496  and  _498
REMARK  201  A    between atoms: _498  and  _499
REMARK  202  A    between atoms: _498  and  _501
REMARK  203  A    between atoms: _504  and  _506
REMARK  204  A    between atoms: _506  and  _507
REMARK  205  A    between atoms: _506  and  _509
REMARK  206  A    between atoms: _511  and  _513
REMARK  207  A    between atoms: _513  and  _514
REMARK  208  A    between atoms: _513  and  _516
REMARK  209  A    between atoms: _516  and  _517
REMARK  210  A    between atoms: _522  and  _524
REMARK  211  A    between atoms: _524  and  _525
REMARK  212  A    between atoms: _524  and  _527
REMARK  213  A    between atoms: _527  and  _528
REMARK  214  A    between atoms: _531  and  _533
REMARK  215  A    between atoms: _533  and  _534
REMARK  216  A    between atoms: _533  and  _536
REMARK  217  A    between atoms: _536  and  _537
REMARK  218  A    between atoms: _542  and  _544
REMARK  219  A    between atoms: _544  and  _545
REMARK  220  A    between atoms: _547  and  _549
REMARK  221  A    between atoms: _549  and  _550
REMARK  222  A    between atoms: _549  and  _552
REMARK  223  A    between atoms: _552  and  _553
REMARK  224  A    between atoms: _553  and  _554
REMARK  225  A    between atoms: _554  and  _555
REMARK  226  A    between atoms: _555  and  _556
REMARK  227  A    between atoms: _560  and  _562
REMARK  228  A    between atoms: _562  and  _563
REMARK  229  A    between atoms: _562  and  _565
REMARK  230  A    between atoms: _565  and  _566
REMARK  231  A    between atoms: _571  and  _572
REMARK  232  A    between atoms: _574  and  _576
REMARK  233  A    between atoms: _576  and  _577
REMARK  234  A    between atoms: _576  and  _579
REMARK  235  A    between atoms: _579  and  _580
REMARK                            x       y       z     vdW  Elec       q    Type
REMARK                         _______ _______ _______ _____ _____    ______ ____
ROOT
ATOM      1  C   MET A   1      28.508  40.823   5.019  0.00  0.00    +0.238 C 
ATOM      2  N   PHE A   2      27.226  40.644   5.324  0.00  0.00    -0.298 N 
ATOM      3  H   PHE A   2      26.895  40.908   6.274  0.00  0.00    +0.150 HD
ATOM      4  O   MET A   1      28.973  40.580   3.904  0.00  0.00    -0.274 OA
ENDROOT
BRANCH   1   5
ATOM      5  CA  MET A   1      29.392  41.385   6.133  0.00  0.00    +0.146 C 
BRANCH   5   6
ATOM      6  N   MET A   1      28.561  42.049   7.127  0.00  0.00    -0.238 NA
ATOM      7  H   MET A   1      28.443  41.615   8.064  0.00  0.00    +0.142 HD
ENDBRANCH   5   6
BRANCH   5   8
ATOM      8  CB  MET A   1      30.204  40.262   6.800  0.00  0.00    +0.038 C 
BRANCH   8   9
ATOM      9  CG  MET A   1      30.400  39.017   5.946  0.00  0.00    +0.060 C 
BRANCH   9  10
ATOM     10  SD  MET A   1      31.782  37.972   6.465  0.00  0.00    -0.139 S 
ATOM     11  CE  MET A   1      31.107  37.063   7.740  0.00  0.00    +0.069 C 
ENDBRANCH   9  10
ENDBRANCH   8   9
ENDBRANCH   5   8
ENDBRANCH   1   5
BRANCH   2  12
ATOM     12  CA  PHE A   2      26.266  40.091   4.374  0.00  0.00    +0.141 C 
BRANCH  12  13
ATOM     13  C   PHE A   2      25.351  41.133   3.738  0.00  0.00    +0.227 C 
ATOM     14  O   PHE A   2      24.318  40.789   3.161  0.00  0.00    -0.286 OA
ENDBRANCH  12  13
BRANCH  12  15
ATOM     15  CB  PHE A   2      25.416  39.034   5.079  0.00  0.00    +0.054 C 
BRANCH  15  16
ATOM     16  CG  PHE A   2      26.219  37.899   5.644  0.00  0.00    -0.020 A 
ATOM     17  CD2 PHE A   2      26.478  37.824   7.008  0.00  0.00    -0.004 A 
ATOM     18  CE2 PHE A   2      27.264  36.796   7.531  0.00  0.00    -0.000 A 
ATOM     19  CZ  PHE A   2      27.796  35.831   6.680  0.00  0.00    -0.000 A 
ATOM     20  CE1 PHE A   2      27.539  35.897   5.314  0.00  0.00    -0.000 A 
ATOM     21  CD1 PHE A   2      26.753  36.929   4.805  0.00  0.00    -0.004 A 
ENDBRANCH  15  16
ENDBRANCH  12  15
ENDBRANCH   2  12
TORSDOF 9
REMARK  Name = ../refined-set-2016/1nq7/1nq7_pocket.pdb
REMARK  235 active torsions:
REMARK  status: ('A' for Active; 'I' for Inactive)
REMARK    1  A    between atoms: _1  and  _3
REMARK    2  A    between atoms: _3  and  _4
REMARK    3  A    between atoms: _3  and  _6
REMARK    4  A    between atoms: _6  and  _7
REMARK    5  A    between atoms: _12  and  _14
REMARK    6  A    between atoms: _14  and  _15
REMARK    7  A    between atoms: _14  and  _17
REMARK    8  A    between atoms: _17  and  _18
REMARK    9  A    between atoms: _21  and  _23
REMARK   10  A    between atoms: _23  and  _24
REMARK   11  A    between atoms: _23  and  _26
REMARK   12  A    between atoms: _28  and  _30
REMARK   13  A    between atoms: _30  and  _31
REMARK   14  A    between atoms: _30  and  _33
REMARK   15  A    between atoms: _33  and  _34
REMARK   16  A    between atoms: _34  and  _35
REMARK   17  A    between atoms: _40  and  _42
REMARK   18  A    between atoms: _42  and  _43
REMARK   19  A    between atoms: _42  and  _45
REMARK   20  A    between atoms: _45  and  _46
REMARK   21  A    between atoms: _51  and  _52
REMARK   22  A    between atoms: _54  and  _56
REMARK   23  A    between atoms: _56  and  _57
REMARK   24  A    between atoms: _56  and  _59
REMARK   25  A    between atoms: _59  and  _60
REMARK   26  A    between atoms: _63  and  _65
REMARK   27  A    between atoms: _65  and  _66
REMARK   28  A    between atoms: _65  and  _68
REMARK   29  A    between atoms: _68  and  _69
REMARK   30  A    between atoms: _72  and  _74
REMARK   31  A    between atoms: _74  and  _75
REMARK   32  A    between atoms: _74  and  _77
REMARK   33  A    between atoms: _77  and  _78
REMARK   34  A    between atoms: _81  and  _83
REMARK   35  A    between atoms: _83  and  _84
REMARK   36  A    between atoms: _83  and  _86
REMARK   37  A    between atoms: _86  and  _87
REMARK   38  A    between atoms: _97  and  _99
REMARK   39  A    between atoms: _99  and  _100
REMARK   40  A    between atoms: _99  and  _102
REMARK   41  A    between atoms: _102  and  _103
REMARK   42  A    between atoms: _103  and  _104
REMARK   43  A    between atoms: _109  and  _111
REMARK   44  A    between atoms: _111  and  _112
REMARK   45  A    between atoms: _111  and  _114
REMARK   46  A    between atoms: _116  and  _118
REMARK   47  A    between atoms: _118  and  _119
REMARK   48  A    between atoms: _122  and  _124
REMARK   49  A    between atoms: _124  and  _125
REMARK   50  A    between atoms: _124  and  _127
REMARK   51  A    between atoms: _127  and  _128
REMARK   52  A    between atoms: _128  and  _129
REMARK   53  A    between atoms: _134  and  _136
REMARK   54  A    between atoms: _136  and  _137
REMARK   55  A    between atoms: _136  and  _139
REMARK   56  A    between atoms: _139  and  _140
REMARK   57  A    between atoms: _143  and  _145
REMARK   58  A    between atoms: _145  and  _146
REMARK   59  A    between atoms: _145  and  _148
REMARK   60  A    between atoms: _148  and  _149
REMARK   61  A    between atoms: _154  and  _156
REMARK   62  A    between atoms: _156  and  _157
REMARK   63  A    between atoms: _160  and  _162
REMARK   64  A    between atoms: _162  and  _163
REMARK   65  A    between atoms: _162  and  _165
REMARK   66  A    between atoms: _165  and  _166
REMARK   67  A    between atoms: _169  and  _171
REMARK   68  A    between atoms: _171  and  _172
REMARK   69  A    between atoms: _171  and  _174
REMARK   70  A    between atoms: _174  and  _175
REMARK   71  A    between atoms: _180  and  _181
REMARK   72  A    between atoms: _183  and  _185
REMARK   73  A    between atoms: _185  and  _186
REMARK   74  A    between atoms: _185  and  _188
REMARK   75  A    between atoms: _191  and  _193
REMARK   76  A    between atoms: _193  and  _194
REMARK   77  A    between atoms: _193  and  _196
REMARK   78  A    between atoms: _198  and  _200
REMARK   79  A    between atoms: _200  and  _201
REMARK   80  A    between atoms: _200  and  _203
REMARK   81  A    between atoms: _203  and  _204
REMARK   82  A    between atoms: _207  and  _209
REMARK   83  A    between atoms: _209  and  _210
REMARK   84  A    between atoms: _209  and  _212
REMARK   85  A    between atoms: _212  and  _213
REMARK   86  A    between atoms: _213  and  _214
REMARK   87  A    between atoms: _217  and  _219
REMARK   88  A    between atoms: _219  and  _220
REMARK   89  A    between atoms: _219  and  _222
REMARK   90  A    between atoms: _225  and  _227
REMARK   91  A    between atoms: _227  and  _228
REMARK   92  A    between atoms: _227  and  _230
REMARK   93  A    between atoms: _233  and  _235
REMARK   94  A    between atoms: _235  and  _236
REMARK   95  A    between atoms: _235  and  _238
REMARK   96  A    between atoms: _238  and  _239
REMARK   97  A    between atoms: _242  and  _244
REMARK   98  A    between atoms: _244  and  _245
REMARK   99  A    between atoms: _244  and  _247
REMARK  100  A    between atoms: _250  and  _252
REMARK  101  A    between atoms: _252  and  _253
REMARK  102  A    between atoms: _252  and  _255
REMARK  103  A    between atoms: _255  and  _256
REMARK  104  A    between atoms: _256  and  _257
REMARK  105  A    between atoms: _257  and  _258
REMARK  106  A    between atoms: _267  and  _269
REMARK  107  A    between atoms: _269  and  _270
REMARK  108  A    between atoms: _269  and  _272
REMARK  109  A    between atoms: _272  and  _273
REMARK  110  A    between atoms: _273  and  _274
REMARK  111  A    between atoms: _276  and  _278
REMARK  112  A    between atoms: _278  and  _279
REMARK  113  A    between atoms: _278  and  _281
REMARK  114  A    between atoms: _283  and  _285
REMARK  115  A    between atoms: _285  and  _286
REMARK  116  A    between atoms: _285  and  _288
REMARK  117  A    between atoms: _288  and  _289
REMARK  118  A    between atoms: _289  and  _290
REMARK  119  A    between atoms: _290  and  _291
REMARK  120  A    between atoms: _300  and  _302
REMARK  121  A    between atoms: _302  and  _303
REMARK  122  A    between atoms: _306  and  _308
REMARK  123  A    between atoms: _308  and  _309
REMARK  124  A    between atoms: _308  and  _311
REMARK  125  A    between atoms: _311  and  _312
REMARK  126  A    between atoms: _318  and  _320
REMARK  127  A    between atoms: _320  and  _321
REMARK  128  A    between atoms: _320  and  _323
REMARK  129  A    between atoms: _326  and  _328
REMARK  130  A    between atoms: _328  and  _329
REMARK  131  A    between atoms: _328  and  _331
REMARK  132  A    between atoms: _331  and  _332
REMARK  133  A    between atoms: _335  and  _337
REMARK  134  A    between atoms: _337  and  _338
REMARK  135  A    between atoms: _337  and  _340
REMARK  136  A    between atoms: _340  and  _341
REMARK  137  A    between atoms: _347  and  _349
REMARK  138  A    between atoms: _349  and  _350
REMARK  139  A    between atoms: _349  and  _352
REMARK  140  A    between atoms: _352  and  _353
REMARK  141  A    between atoms: _353  and  _354
REMARK  142  A    between atoms: _357  and  _359
REMARK  143  A    between atoms: _359  and  _360
REMARK  144  A    between atoms: _362  and  _364
REMARK  145  A    between atoms: _364  and  _365
REMARK  146  A    between atoms: _367  and  _369
REMARK  147  A    between atoms: _369  and  _370
REMARK  148  A    between atoms: _372  and  _374
REMARK  149  A    between atoms: _374  and  _375
REMARK  150  A    between atoms: _374  and  _377
REMARK  151  A    between atoms: _377  and  _378
REMARK  152  A    between atoms: _378  and  _379
REMARK  153  A    between atoms: _381  and  _383
REMARK  154  A    between atoms: _383  and  _384
REMARK  155  A    between atoms: _383  and  _386
REMARK  156  A    between atoms: _386  and  _387
REMARK  157  A    between atoms: _387  and  _388
REMARK  158  A    between atoms: _390  and  _392
REMARK  159  A    between atoms: _392  and  _393
REMARK  160  A    between atoms: _392  and  _395
REMARK  161  A    between atoms: _395  and  _396
REMARK  162  A    between atoms: _402  and  _404
REMARK  163  A    between atoms: _404  and  _405
REMARK  164  A    between atoms: _404  and  _407
REMARK  165  A    between atoms: _407  and  _408
REMARK  166  A    between atoms: _411  and  _413
REMARK  167  A    between atoms: _413  and  _414
REMARK  168  A    between atoms: _413  and  _416
REMARK  169  A    between atoms: _416  and  _417
REMARK  170  A    between atoms: _419  and  _421
REMARK  171  A    between atoms: _421  and  _422
REMARK  172  A    between atoms: _421  and  _424
REMARK  173  A    between atoms: _424  and  _425
REMARK  174  A    between atoms: _428  and  _430
REMARK  175  A    between atoms: _430  and  _431
REMARK  176  A    between atoms: _430  and  _433
REMARK  177  A    between atoms: _436  and  _438
REMARK  178  A    between atoms: _438  and  _439
REMARK  179  A    between atoms: _438  and  _441
REMARK  180  A    between atoms: _441  and  _442
REMARK  181  A    between atoms: _447  and  _449
REMARK  182  A    between atoms: _449  and  _450
REMARK  183  A    between atoms: _449  and  _452
REMARK  184  A    between atoms: _452  and  _453
REMARK  185  A    between atoms: _453  and  _454
REMARK  186  A    between atoms: _457  and  _459
REMARK  187  A    between atoms: _459  and  _460
REMARK  188  A    between atoms: _463  and  _465
REMARK  189  A    between atoms: _465  and  _466
REMARK  190  A    between atoms: _465  and  _468
REMARK  191  A    between atoms: _468  and  _469
REMARK  192  A    between atoms: _475  and  _477
REMARK  193  A    between atoms: _477  and  _478
REMARK  194  A    between atoms: _477  and  _480
REMARK  195  A    between atoms: _480  and  _481
REMARK  196  A    between atoms: _487  and  _489
REMARK  197  A    between atoms: _489  and  _490
REMARK  198  A    between atoms: _489  and  _492
REMARK  199  A    between atoms: _492  and  _493
REMARK  200  A    between atoms: _496  and  _498
REMARK  201  A    between atoms: _498  and  _499
REMARK  202  A    between atoms: _498  and  _501
REMARK  203  A    between atoms: _504  and  _506
REMARK  204  A    between atoms: _506  and  _507
REMARK  205  A    between atoms: _506  and  _509
REMARK  206  A    between atoms: _511  and  _513
REMARK  207  A    between atoms: _513  and  _514
REMARK  208  A    between atoms: _513  and  _516
REMARK  209  A    between atoms: _516  and  _517
REMARK  210  A    between atoms: _522  and  _524
REMARK  211  A    between atoms: _524  and  _525
REMARK  212  A    between atoms: _524  and  _527
REMARK  213  A    between atoms: _527  and  _528
REMARK  214  A    between atoms: _531  and  _533
REMARK  215  A    between atoms: _533  and  _534
REMARK  216  A    between atoms: _533  and  _536
REMARK  217  A    between atoms: _536  and  _537
REMARK  218  A    between atoms: _542  and  _544
REMARK  219  A    between atoms: _544  and  _545
REMARK  220  A    between atoms: _547  and  _549
REMARK  221  A    between atoms: _549  and  _550
REMARK  222  A    between atoms: _549  and  _552
REMARK  223  A    between atoms: _552  and  _553
REMARK  224  A    between atoms: _553  and  _554
REMARK  225  A    between atoms: _554  and  _555
REMARK  226  A    between atoms: _555  and  _556
REMARK  227  A    between atoms: _560  and  _562
REMARK  228  A    between atoms: _562  and  _563
REMARK  229  A    between atoms: _562  and  _565
REMARK  230  A    between atoms: _565  and  _566
REMARK  231  A    between atoms: _571  and  _572
REMARK  232  A    between atoms: _574  and  _576
REMARK  233  A    between atoms: _576  and  _577
REMARK  234  A    between atoms: _576  and  _579
REMARK  235  A    between atoms: _579  and  _580
REMARK                            x       y       z     vdW  Elec       q    Type
REMARK                         _______ _______ _______ _____ _____    ______ ____
ROOT
ATOM      1  CA  LEU A   1      22.683  39.780   0.026  0.00  0.00    +0.133 C 
ENDROOT
BRANCH   1   2
ATOM      2  N   LEU A   1      23.743  40.760   0.237  0.00  0.00    -0.239 NA
ATOM      3  H   LEU A   1      24.236  40.798   1.152  0.00  0.00    +0.142 HD
ENDBRANCH   1   2
BRANCH   1   4
ATOM      4  C   LEU A   1      21.325  40.453  -0.103  0.00  0.00    +0.224 C 
ATOM      5  O   LEU A   1      20.413  39.910  -0.724  0.00  0.00    -0.287 OA
ENDBRANCH   1   4
BRANCH   1   6
ATOM      6  CB  LEU A   1      22.623  38.780   1.183  0.00  0.00    +0.025 C 
BRANCH   6   7
ATOM      7  CG  LEU A   1      23.701  37.703   1.285  0.00  0.00    +0.002 C 
ATOM      8  CD2 LEU A   1      23.374  36.794   2.461  0.00  0.00    +0.000 C 
ATOM      9  CD1 LEU A   1      23.764  36.901  -0.006  0.00  0.00    +0.000 C 
ENDBRANCH   6   7
ENDBRANCH   1   6
TORSDOF 4
REMARK  Name = ../refined-set-2016/1nq7/1nq7_pocket.pdb
REMARK  235 active torsions:
REMARK  status: ('A' for Active; 'I' for Inactive)
REMARK    1  A    between atoms: _1  and  _3
REMARK    2  A    between atoms: _3  and  _4
REMARK    3  A    between atoms: _3  and  _6
REMARK    4  A    between atoms: _6  and  _7
REMARK    5  A    between atoms: _12  and  _14
REMARK    6  A    between atoms: _14  and  _15
REMARK    7  A    between atoms: _14  and  _17
REMARK    8  A    between atoms: _17  and  _18
REMARK    9  A    between atoms: _21  and  _23
REMARK   10  A    between atoms: _23  and  _24
REMARK   11  A    between atoms: _23  and  _26
REMARK   12  A    between atoms: _28  and  _30
REMARK   13  A    between atoms: _30  and  _31
REMARK   14  A    between atoms: _30  and  _33
REMARK   15  A    between atoms: _33  and  _34
REMARK   16  A    between atoms: _34  and  _35
REMARK   17  A    between atoms: _40  and  _42
REMARK   18  A    between atoms: _42  and  _43
REMARK   19  A    between atoms: _42  and  _45
REMARK   20  A    between atoms: _45  and  _46
REMARK   21  A    between atoms: _51  and  _52
REMARK   22  A    between atoms: _54  and  _56
REMARK   23  A    between atoms: _56  and  _57
REMARK   24  A    between atoms: _56  and  _59
REMARK   25  A    between atoms: _59  and  _60
REMARK   26  A    between atoms: _63  and  _65
REMARK   27  A    between atoms: _65  and  _66
REMARK   28  A    between atoms: _65  and  _68
REMARK   29  A    between atoms: _68  and  _69
REMARK   30  A    between atoms: _72  and  _74
REMARK   31  A    between atoms: _74  and  _75
REMARK   32  A    between atoms: _74  and  _77
REMARK   33  A    between atoms: _77  and  _78
REMARK   34  A    between atoms: _81  and  _83
REMARK   35  A    between atoms: _83  and  _84
REMARK   36  A    between atoms: _83  and  _86
REMARK   37  A    between atoms: _86  and  _87
REMARK   38  A    between atoms: _97  and  _99
REMARK   39  A    between atoms: _99  and  _100
REMARK   40  A    between atoms: _99  and  _102
REMARK   41  A    between atoms: _102  and  _103
REMARK   42  A    between atoms: _103  and  _104
REMARK   43  A    between atoms: _109  and  _111
REMARK   44  A    between atoms: _111  and  _112
REMARK   45  A    between atoms: _111  and  _114
REMARK   46  A    between atoms: _116  and  _118
REMARK   47  A    between atoms: _118  and  _119
REMARK   48  A    between atoms: _122  and  _124
REMARK   49  A    between atoms: _124  and  _125
REMARK   50  A    between atoms: _124  and  _127
REMARK   51  A    between atoms: _127  and  _128
REMARK   52  A    between atoms: _128  and  _129
REMARK   53  A    between atoms: _134  and  _136
REMARK   54  A    between atoms: _136  and  _137
REMARK   55  A    between atoms: _136  and  _139
REMARK   56  A    between atoms: _139  and  _140
REMARK   57  A    between atoms: _143  and  _145
REMARK   58  A    between atoms: _145  and  _146
REMARK   59  A    between atoms: _145  and  _148
REMARK   60  A    between atoms: _148  and  _149
REMARK   61  A    between atoms: _154  and  _156
REMARK   62  A    between atoms: _156  and  _157
REMARK   63  A    between atoms: _160  and  _162
REMARK   64  A    between atoms: _162  and  _163
REMARK   65  A    between atoms: _162  and  _165
REMARK   66  A    between atoms: _165  and  _166
REMARK   67  A    between atoms: _169  and  _171
REMARK   68  A    between atoms: _171  and  _172
REMARK   69  A    between atoms: _171  and  _174
REMARK   70  A    between atoms: _174  and  _175
REMARK   71  A    between atoms: _180  and  _181
REMARK   72  A    between atoms: _183  and  _185
REMARK   73  A    between atoms: _185  and  _186
REMARK   74  A    between atoms: _185  and  _188
REMARK   75  A    between atoms: _191  and  _193
REMARK   76  A    between atoms: _193  and  _194
REMARK   77  A    between atoms: _193  and  _196
REMARK   78  A    between atoms: _198  and  _200
REMARK   79  A    between atoms: _200  and  _201
REMARK   80  A    between atoms: _200  and  _203
REMARK   81  A    between atoms: _203  and  _204
REMARK   82  A    between atoms: _207  and  _209
REMARK   83  A    between atoms: _209  and  _210
REMARK   84  A    between atoms: _209  and  _212
REMARK   85  A    between atoms: _212  and  _213
REMARK   86  A    between atoms: _213  and  _214
REMARK   87  A    between atoms: _217  and  _219
REMARK   88  A    between atoms: _219  and  _220
REMARK   89  A    between atoms: _219  and  _222
REMARK   90  A    between atoms: _225  and  _227
REMARK   91  A    between atoms: _227  and  _228
REMARK   92  A    between atoms: _227  and  _230
REMARK   93  A    between atoms: _233  and  _235
REMARK   94  A    between atoms: _235  and  _236
REMARK   95  A    between atoms: _235  and  _238
REMARK   96  A    between atoms: _238  and  _239
REMARK   97  A    between atoms: _242  and  _244
REMARK   98  A    between atoms: _244  and  _245
REMARK   99  A    between atoms: _244  and  _247
REMARK  100  A    between atoms: _250  and  _252
REMARK  101  A    between atoms: _252  and  _253
REMARK  102  A    between atoms: _252  and  _255
REMARK  103  A    between atoms: _255  and  _256
REMARK  104  A    between atoms: _256  and  _257
REMARK  105  A    between atoms: _257  and  _258
REMARK  106  A    between atoms: _267  and  _269
REMARK  107  A    between atoms: _269  and  _270
REMARK  108  A    between atoms: _269  and  _272
REMARK  109  A    between atoms: _272  and  _273
REMARK  110  A    between atoms: _273  and  _274
REMARK  111  A    between atoms: _276  and  _278
REMARK  112  A    between atoms: _278  and  _279
REMARK  113  A    between atoms: _278  and  _281
REMARK  114  A    between atoms: _283  and  _285
REMARK  115  A    between atoms: _285  and  _286
REMARK  116  A    between atoms: _285  and  _288
REMARK  117  A    between atoms: _288  and  _289
REMARK  118  A    between atoms: _289  and  _290
REMARK  119  A    between atoms: _290  and  _291
REMARK  120  A    between atoms: _300  and  _302
REMARK  121  A    between atoms: _302  and  _303
REMARK  122  A    between atoms: _306  and  _308
REMARK  123  A    between atoms: _308  and  _309
REMARK  124  A    between atoms: _308  and  _311
REMARK  125  A    between atoms: _311  and  _312
REMARK  126  A    between atoms: _318  and  _320
REMARK  127  A    between atoms: _320  and  _321
REMARK  128  A    between atoms: _320  and  _323
REMARK  129  A    between atoms: _326  and  _328
REMARK  130  A    between atoms: _328  and  _329
REMARK  131  A    between atoms: _328  and  _331
REMARK  132  A    between atoms: _331  and  _332
REMARK  133  A    between atoms: _335  and  _337
REMARK  134  A    between atoms: _337  and  _338
REMARK  135  A    between atoms: _337  and  _340
REMARK  136  A    between atoms: _340  and  _341
REMARK  137  A    between atoms: _347  and  _349
REMARK  138  A    between atoms: _349  and  _350
REMARK  139  A    between atoms: _349  and  _352
REMARK  140  A    between atoms: _352  and  _353
REMARK  141  A    between atoms: _353  and  _354
REMARK  142  A    between atoms: _357  and  _359
REMARK  143  A    between atoms: _359  and  _360
REMARK  144  A    between atoms: _362  and  _364
REMARK  145  A    between atoms: _364  and  _365
REMARK  146  A    between atoms: _367  and  _369
REMARK  147  A    between atoms: _369  and  _370
REMARK  148  A    between atoms: _372  and  _374
REMARK  149  A    between atoms: _374  and  _375
REMARK  150  A    between atoms: _374  and  _377
REMARK  151  A    between atoms: _377  and  _378
REMARK  152  A    between atoms: _378  and  _379
REMARK  153  A    between atoms: _381  and  _383
REMARK  154  A    between atoms: _383  and  _384
REMARK  155  A    between atoms: _383  and  _386
REMARK  156  A    between atoms: _386  and  _387
REMARK  157  A    between atoms: _387  and  _388
REMARK  158  A    between atoms: _390  and  _392
REMARK  159  A    between atoms: _392  and  _393
REMARK  160  A    between atoms: _392  and  _395
REMARK  161  A    between atoms: _395  and  _396
REMARK  162  A    between atoms: _402  and  _404
REMARK  163  A    between atoms: _404  and  _405
REMARK  164  A    between atoms: _404  and  _407
REMARK  165  A    between atoms: _407  and  _408
REMARK  166  A    between atoms: _411  and  _413
REMARK  167  A    between atoms: _413  and  _414
REMARK  168  A    between atoms: _413  and  _416
REMARK  169  A    between atoms: _416  and  _417
REMARK  170  A    between atoms: _419  and  _421
REMARK  171  A    between atoms: _421  and  _422
REMARK  172  A    between atoms: _421  and  _424
REMARK  173  A    between atoms: _424  and  _425
REMARK  174  A    between atoms: _428  and  _430
REMARK  175  A    between atoms: _430  and  _431
REMARK  176  A    between atoms: _430  and  _433
REMARK  177  A    between atoms: _436  and  _438
REMARK  178  A    between atoms: _438  and  _439
REMARK  179  A    between atoms: _438  and  _441
REMARK  180  A    between atoms: _441  and  _442
REMARK  181  A    between atoms: _447  and  _449
REMARK  182  A    between atoms: _449  and  _450
REMARK  183  A    between atoms: _449  and  _452
REMARK  184  A    between atoms: _452  and  _453
REMARK  185  A    between atoms: _453  and  _454
REMARK  186  A    between atoms: _457  and  _459
REMARK  187  A    between atoms: _459  and  _460
REMARK  188  A    between atoms: _463  and  _465
REMARK  189  A    between atoms: _465  and  _466
REMARK  190  A    between atoms: _465  and  _468
REMARK  191  A    between atoms: _468  and  _469
REMARK  192  A    between atoms: _475  and  _477
REMARK  193  A    between atoms: _477  and  _478
REMARK  194  A    between atoms: _477  and  _480
REMARK  195  A    between atoms: _480  and  _481
REMARK  196  A    between atoms: _487  and  _489
REMARK  197  A    between atoms: _489  and  _490
REMARK  198  A    between atoms: _489  and  _492
REMARK  199  A    between atoms: _492  and  _493
REMARK  200  A    between atoms: _496  and  _498
REMARK  201  A    between atoms: _498  and  _499
REMARK  202  A    between atoms: _498  and  _501
REMARK  203  A    between atoms: _504  and  _506
REMARK  204  A    between atoms: _506  and  _507
REMARK  205  A    between atoms: _506  and  _509
REMARK  206  A    between atoms: _511  and  _513
REMARK  207  A    between atoms: _513  and  _514
REMARK  208  A    between atoms: _513  and  _516
REMARK  209  A    between atoms: _516  and  _517
REMARK  210  A    between atoms: _522  and  _524
REMARK  211  A    between atoms: _524  and  _525
REMARK  212  A    between atoms: _524  and  _527
REMARK  213  A    between atoms: _527  and  _528
REMARK  214  A    between atoms: _531  and  _533
REMARK  215  A    between atoms: _533  and  _534
REMARK  216  A    between atoms: _533  and  _536
REMARK  217  A    between atoms: _536  and  _537
REMARK  218  A    between atoms: _542  and  _544
REMARK  219  A    between atoms: _544  and  _545
REMARK  220  A    between atoms: _547  and  _549
REMARK  221  A    between atoms: _549  and  _550
REMARK  222  A    between atoms: _549  and  _552
REMARK  223  A    between atoms: _552  and  _553
REMARK  224  A    between atoms: _553  and  _554
REMARK  225  A    between atoms: _554  and  _555
REMARK  226  A    between atoms: _555  and  _556
REMARK  227  A    between atoms: _560  and  _562
REMARK  228  A    between atoms: _562  and  _563
REMARK  229  A    between atoms: _562  and  _565
REMARK  230  A    between atoms: _565  and  _566
REMARK  231  A    between atoms: _571  and  _572
REMARK  232  A    between atoms: _574  and  _576
REMARK  233  A    between atoms: _576  and  _577
REMARK  234  A    between atoms: _576  and  _579
REMARK  235  A    between atoms: _579  and  _580
REMARK                            x       y       z     vdW  Elec       q    Type
REMARK                         _______ _______ _______ _____ _____    ______ ____
ROOT
ATOM      1  CA  SER A   1      18.390  39.993   3.004  0.00  0.00    +0.163 C 
ENDROOT
BRANCH   1   2
ATOM      2  N   SER A   1      19.293  40.832   2.219  0.00  0.00    -0.237 NA
ATOM      3  H   SER A   1      20.295  40.887   2.492  0.00  0.00    +0.142 HD
ENDBRANCH   1   2
BRANCH   1   4
ATOM      4  C   SER A   1      18.690  40.096   4.500  0.00  0.00    +0.227 C 
ATOM      5  O   SER A   1      18.828  39.079   5.181  0.00  0.00    -0.287 OA
ENDBRANCH   1   4
BRANCH   1   6
ATOM      6  CB  SER A   1      18.520  38.531   2.566  0.00  0.00    +0.162 C 
BRANCH   6   7
ATOM      7  OG  SER A   1      18.416  38.396   1.159  0.00  0.00    -0.380 OA
ATOM      8  H   SER A   1      19.136  38.918   0.724  0.00  0.00    +0.211 HD
ENDBRANCH   6   7
ENDBRANCH   1   6
TORSDOF 4
REMARK  Name = ../refined-set-2016/1nq7/1nq7_pocket.pdb
REMARK  235 active torsions:
REMARK  status: ('A' for Active; 'I' for Inactive)
REMARK    1  A    between atoms: _1  and  _3
REMARK    2  A    between atoms: _3  and  _4
REMARK    3  A    between atoms: _3  and  _6
REMARK    4  A    between atoms: _6  and  _7
REMARK    5  A    between atoms: _12  and  _14
REMARK    6  A    between atoms: _14  and  _15
REMARK    7  A    between atoms: _14  and  _17
REMARK    8  A    between atoms: _17  and  _18
REMARK    9  A    between atoms: _21  and  _23
REMARK   10  A    between atoms: _23  and  _24
REMARK   11  A    between atoms: _23  and  _26
REMARK   12  A    between atoms: _28  and  _30
REMARK   13  A    between atoms: _30  and  _31
REMARK   14  A    between atoms: _30  and  _33
REMARK   15  A    between atoms: _33  and  _34
REMARK   16  A    between atoms: _34  and  _35
REMARK   17  A    between atoms: _40  and  _42
REMARK   18  A    between atoms: _42  and  _43
REMARK   19  A    between atoms: _42  and  _45
REMARK   20  A    between atoms: _45  and  _46
REMARK   21  A    between atoms: _51  and  _52
REMARK   22  A    between atoms: _54  and  _56
REMARK   23  A    between atoms: _56  and  _57
REMARK   24  A    between atoms: _56  and  _59
REMARK   25  A    between atoms: _59  and  _60
REMARK   26  A    between atoms: _63  and  _65
REMARK   27  A    between atoms: _65  and  _66
REMARK   28  A    between atoms: _65  and  _68
REMARK   29  A    between atoms: _68  and  _69
REMARK   30  A    between atoms: _72  and  _74
REMARK   31  A    between atoms: _74  and  _75
REMARK   32  A    between atoms: _74  and  _77
REMARK   33  A    between atoms: _77  and  _78
REMARK   34  A    between atoms: _81  and  _83
REMARK   35  A    between atoms: _83  and  _84
REMARK   36  A    between atoms: _83  and  _86
REMARK   37  A    between atoms: _86  and  _87
REMARK   38  A    between atoms: _97  and  _99
REMARK   39  A    between atoms: _99  and  _100
REMARK   40  A    between atoms: _99  and  _102
REMARK   41  A    between atoms: _102  and  _103
REMARK   42  A    between atoms: _103  and  _104
REMARK   43  A    between atoms: _109  and  _111
REMARK   44  A    between atoms: _111  and  _112
REMARK   45  A    between atoms: _111  and  _114
REMARK   46  A    between atoms: _116  and  _118
REMARK   47  A    between atoms: _118  and  _119
REMARK   48  A    between atoms: _122  and  _124
REMARK   49  A    between atoms: _124  and  _125
REMARK   50  A    between atoms: _124  and  _127
REMARK   51  A    between atoms: _127  and  _128
REMARK   52  A    between atoms: _128  and  _129
REMARK   53  A    between atoms: _134  and  _136
REMARK   54  A    between atoms: _136  and  _137
REMARK   55  A    between atoms: _136  and  _139
REMARK   56  A    between atoms: _139  and  _140
REMARK   57  A    between atoms: _143  and  _145
REMARK   58  A    between atoms: _145  and  _146
REMARK   59  A    between atoms: _145  and  _148
REMARK   60  A    between atoms: _148  and  _149
REMARK   61  A    between atoms: _154  and  _156
REMARK   62  A    between atoms: _156  and  _157
REMARK   63  A    between atoms: _160  and  _162
REMARK   64  A    between atoms: _162  and  _163
REMARK   65  A    between atoms: _162  and  _165
REMARK   66  A    between atoms: _165  and  _166
REMARK   67  A    between atoms: _169  and  _171
REMARK   68  A    between atoms: _171  and  _172
REMARK   69  A    between atoms: _171  and  _174
REMARK   70  A    between atoms: _174  and  _175
REMARK   71  A    between atoms: _180  and  _181
REMARK   72  A    between atoms: _183  and  _185
REMARK   73  A    between atoms: _185  and  _186
REMARK   74  A    between atoms: _185  and  _188
REMARK   75  A    between atoms: _191  and  _193
REMARK   76  A    between atoms: _193  and  _194
REMARK   77  A    between atoms: _193  and  _196
REMARK   78  A    between atoms: _198  and  _200
REMARK   79  A    between atoms: _200  and  _201
REMARK   80  A    between atoms: _200  and  _203
REMARK   81  A    between atoms: _203  and  _204
REMARK   82  A    between atoms: _207  and  _209
REMARK   83  A    between atoms: _209  and  _210
REMARK   84  A    between atoms: _209  and  _212
REMARK   85  A    between atoms: _212  and  _213
REMARK   86  A    between atoms: _213  and  _214
REMARK   87  A    between atoms: _217  and  _219
REMARK   88  A    between atoms: _219  and  _220
REMARK   89  A    between atoms: _219  and  _222
REMARK   90  A    between atoms: _225  and  _227
REMARK   91  A    between atoms: _227  and  _228
REMARK   92  A    between atoms: _227  and  _230
REMARK   93  A    between atoms: _233  and  _235
REMARK   94  A    between atoms: _235  and  _236
REMARK   95  A    between atoms: _235  and  _238
REMARK   96  A    between atoms: _238  and  _239
REMARK   97  A    between atoms: _242  and  _244
REMARK   98  A    between atoms: _244  and  _245
REMARK   99  A    between atoms: _244  and  _247
REMARK  100  A    between atoms: _250  and  _252
REMARK  101  A    between atoms: _252  and  _253
REMARK  102  A    between atoms: _252  and  _255
REMARK  103  A    between atoms: _255  and  _256
REMARK  104  A    between atoms: _256  and  _257
REMARK  105  A    between atoms: _257  and  _258
REMARK  106  A    between atoms: _267  and  _269
REMARK  107  A    between atoms: _269  and  _270
REMARK  108  A    between atoms: _269  and  _272
REMARK  109  A    between atoms: _272  and  _273
REMARK  110  A    between atoms: _273  and  _274
REMARK  111  A    between atoms: _276  and  _278
REMARK  112  A    between atoms: _278  and  _279
REMARK  113  A    between atoms: _278  and  _281
REMARK  114  A    between atoms: _283  and  _285
REMARK  115  A    between atoms: _285  and  _286
REMARK  116  A    between atoms: _285  and  _288
REMARK  117  A    between atoms: _288  and  _289
REMARK  118  A    between atoms: _289  and  _290
REMARK  119  A    between atoms: _290  and  _291
REMARK  120  A    between atoms: _300  and  _302
REMARK  121  A    between atoms: _302  and  _303
REMARK  122  A    between atoms: _306  and  _308
REMARK  123  A    between atoms: _308  and  _309
REMARK  124  A    between atoms: _308  and  _311
REMARK  125  A    between atoms: _311  and  _312
REMARK  126  A    between atoms: _318  and  _320
REMARK  127  A    between atoms: _320  and  _321
REMARK  128  A    between atoms: _320  and  _323
REMARK  129  A    between atoms: _326  and  _328
REMARK  130  A    between atoms: _328  and  _329
REMARK  131  A    between atoms: _328  and  _331
REMARK  132  A    between atoms: _331  and  _332
REMARK  133  A    between atoms: _335  and  _337
REMARK  134  A    between atoms: _337  and  _338
REMARK  135  A    between atoms: _337  and  _340
REMARK  136  A    between atoms: _340  and  _341
REMARK  137  A    between atoms: _347  and  _349
REMARK  138  A    between atoms: _349  and  _350
REMARK  139  A    between atoms: _349  and  _352
REMARK  140  A    between atoms: _352  and  _353
REMARK  141  A    between atoms: _353  and  _354
REMARK  142  A    between atoms: _357  and  _359
REMARK  143  A    between atoms: _359  and  _360
REMARK  144  A    between atoms: _362  and  _364
REMARK  145  A    between atoms: _364  and  _365
REMARK  146  A    between atoms: _367  and  _369
REMARK  147  A    between atoms: _369  and  _370
REMARK  148  A    between atoms: _372  and  _374
REMARK  149  A    between atoms: _374  and  _375
REMARK  150  A    between atoms: _374  and  _377
REMARK  151  A    between atoms: _377  and  _378
REMARK  152  A    between atoms: _378  and  _379
REMARK  153  A    between atoms: _381  and  _383
REMARK  154  A    between atoms: _383  and  _384
REMARK  155  A    between atoms: _383  and  _386
REMARK  156  A    between atoms: _386  and  _387
REMARK  157  A    between atoms: _387  and  _388
REMARK  158  A    between atoms: _390  and  _392
REMARK  159  A    between atoms: _392  and  _393
REMARK  160  A    between atoms: _392  and  _395
REMARK  161  A    between atoms: _395  and  _396
REMARK  162  A    between atoms: _402  and  _404
REMARK  163  A    between atoms: _404  and  _405
REMARK  164  A    between atoms: _404  and  _407
REMARK  165  A    between atoms: _407  and  _408
REMARK  166  A    between atoms: _411  and  _413
REMARK  167  A    between atoms: _413  and  _414
REMARK  168  A    between atoms: _413  and  _416
REMARK  169  A    between atoms: _416  and  _417
REMARK  170  A    between atoms: _419  and  _421
REMARK  171  A    between atoms: _421  and  _422
REMARK  172  A    between atoms: _421  and  _424
REMARK  173  A    between atoms: _424  and  _425
REMARK  174  A    between atoms: _428  and  _430
REMARK  175  A    between atoms: _430  and  _431
REMARK  176  A    between atoms: _430  and  _433
REMARK  177  A    between atoms: _436  and  _438
REMARK  178  A    between atoms: _438  and  _439
REMARK  179  A    between atoms: _438  and  _441
REMARK  180  A    between atoms: _441  and  _442
REMARK  181  A    between atoms: _447  and  _449
REMARK  182  A    between atoms: _449  and  _450
REMARK  183  A    between atoms: _449  and  _452
REMARK  184  A    between atoms: _452  and  _453
REMARK  185  A    between atoms: _453  and  _454
REMARK  186  A    between atoms: _457  and  _459
REMARK  187  A    between atoms: _459  and  _460
REMARK  188  A    between atoms: _463  and  _465
REMARK  189  A    between atoms: _465  and  _466
REMARK  190  A    between atoms: _465  and  _468
REMARK  191  A    between atoms: _468  and  _469
REMARK  192  A    between atoms: _475  and  _477
REMARK  193  A    between atoms: _477  and  _478
REMARK  194  A    between atoms: _477  and  _480
REMARK  195  A    between atoms: _480  and  _481
REMARK  196  A    between atoms: _487  and  _489
REMARK  197  A    between atoms: _489  and  _490
REMARK  198  A    between atoms: _489  and  _492
REMARK  199  A    between atoms: _492  and  _493
REMARK  200  A    between atoms: _496  and  _498
REMARK  201  A    between atoms: _498  and  _499
REMARK  202  A    between atoms: _498  and  _501
REMARK  203  A    between atoms: _504  and  _506
REMARK  204  A    between atoms: _506  and  _507
REMARK  205  A    between atoms: _506  and  _509
REMARK  206  A    between atoms: _511  and  _513
REMARK  207  A    between atoms: _513  and  _514
REMARK  208  A    between atoms: _513  and  _516
REMARK  209  A    between atoms: _516  and  _517
REMARK  210  A    between atoms: _522  and  _524
REMARK  211  A    between atoms: _524  and  _525
REMARK  212  A    between atoms: _524  and  _527
REMARK  213  A    between atoms: _527  and  _528
REMARK  214  A    between atoms: _531  and  _533
REMARK  215  A    between atoms: _533  and  _534
REMARK  216  A    between atoms: _533  and  _536
REMARK  217  A    between atoms: _536  and  _537
REMARK  218  A    between atoms: _542  and  _544
REMARK  219  A    between atoms: _544  and  _545
REMARK  220  A    between atoms: _547  and  _549
REMARK  221  A    between atoms: _549  and  _550
REMARK  222  A    between atoms: _549  and  _552
REMARK  223  A    between atoms: _552  and  _553
REMARK  224  A    between atoms: _553  and  _554
REMARK  225  A    between atoms: _554  and  _555
REMARK  226  A    between atoms: _555  and  _556
REMARK  227  A    between atoms: _560  and  _562
REMARK  228  A    between atoms: _562  and  _563
REMARK  229  A    between atoms: _562  and  _565
REMARK  230  A    between atoms: _565  and  _566
REMARK  231  A    between atoms: _571  and  _572
REMARK  232  A    between atoms: _574  and  _576
REMARK  233  A    between atoms: _576  and  _577
REMARK  234  A    between atoms: _576  and  _579
REMARK  235  A    between atoms: _579  and  _580
REMARK                            x       y       z     vdW  Elec       q    Type
REMARK                         _______ _______ _______ _____ _____    ______ ____
ROOT
ATOM      1  C   ASN A   3      18.061  37.794  12.293  0.00  0.00    +0.241 C 
ATOM      2  O   ASN A   3      18.271  37.563  13.481  0.00  0.00    -0.273 OA
ATOM      3  N   GLU A   4      17.192  37.097  11.565  0.00  0.00    -0.297 N 
ATOM      4  H   GLU A   4      17.052  37.334  10.562  0.00  0.00    +0.150 HD
ENDROOT
BRANCH   3   5
ATOM      5  CA  GLU A   4      16.435  36.004  12.163  0.00  0.00    +0.149 C 
BRANCH   5   6
ATOM      6  C   GLU A   4      17.341  34.831  12.511  0.00  0.00    +0.241 C 
ATOM      7  O   GLU A   4      17.148  34.176  13.533  0.00  0.00    -0.273 OA
ATOM      8  N   ALA A   5      18.337  34.578  11.667  0.00  0.00    -0.297 N 
ATOM      9  H   ALA A   5      18.453  35.169  10.819  0.00  0.00    +0.150 HD
BRANCH   8  10
ATOM     10  CA  ALA A   5      19.270  33.483  11.914  0.00  0.00    +0.149 C 
ATOM     11  CB  ALA A   5      20.146  33.262  10.688  0.00  0.00    +0.031 C 
BRANCH  10  12
ATOM     12  C   ALA A   5      20.131  33.812  13.135  0.00  0.00    +0.241 C 
ATOM     13  O   ALA A   5      20.340  32.972  14.015  0.00  0.00    -0.273 OA
ATOM     14  N   PHE A   6      20.617  35.051  13.189  0.00  0.00    -0.298 N 
ATOM     15  H   PHE A   6      20.400  35.715  12.418  0.00  0.00    +0.150 HD
BRANCH  14  16
ATOM     16  CA  PHE A   6      21.445  35.499  14.301  0.00  0.00    +0.141 C 
BRANCH  16  17
ATOM     17  C   PHE A   6      20.655  35.546  15.609  0.00  0.00    +0.227 C 
ATOM     18  O   PHE A   6      21.187  35.220  16.669  0.00  0.00    -0.286 OA
ENDBRANCH  16  17
BRANCH  16  19
ATOM     19  CB  PHE A   6      22.040  36.879  13.988  0.00  0.00    +0.054 C 
BRANCH  19  20
ATOM     20  CG  PHE A   6      23.284  36.834  13.131  0.00  0.00    -0.020 A 
ATOM     21  CD2 PHE A   6      24.266  37.811  13.262  0.00  0.00    -0.004 A 
ATOM     22  CE2 PHE A   6      25.409  37.794  12.464  0.00  0.00    -0.000 A 
ATOM     23  CZ  PHE A   6      25.581  36.792  11.520  0.00  0.00    -0.000 A 
ATOM     24  CE1 PHE A   6      24.608  35.807  11.379  0.00  0.00    -0.000 A 
ATOM     25  CD1 PHE A   6      23.466  35.832  12.182  0.00  0.00    -0.004 A 
ENDBRANCH  19  20
ENDBRANCH  16  19
ENDBRANCH  14  16
ENDBRANCH  10  12
ENDBRANCH   8  10
ENDBRANCH   5   6
BRANCH   5  26
ATOM     26  CB  GLU A   4      15.319  35.537  11.227  0.00  0.00    +0.041 C 
BRANCH  26  27
ATOM     27  CG  GLU A   4      14.272  36.600  10.929  0.00  0.00    +0.116 C 
BRANCH  27  28
ATOM     28  CD  GLU A   4      12.870  36.030  10.842  0.00  0.00    +0.365 C 
ATOM     29  OE2 GLU A   4      11.905  36.808  10.993  0.00  0.00    -0.246 OA
ATOM     30  OE1 GLU A   4      12.730  34.811  10.607  0.00  0.00    -0.246 OA
ENDBRANCH  27  28
ENDBRANCH  26  27
ENDBRANCH   5  26
ENDBRANCH   3   5
BRANCH   1  31
ATOM     31  CA  ASN A   3      18.802  38.922  11.585  0.00  0.00    +0.158 C 
BRANCH  31  34
ATOM     32  C   VAL A   2      20.104  37.558  10.054  0.00  0.00    +0.241 C 
ATOM     33  O   VAL A   2      20.579  36.902  10.978  0.00  0.00    -0.273 OA
ATOM     34  N   ASN A   3      19.240  38.550  10.247  0.00  0.00    -0.297 N 
ATOM     35  H   ASN A   3      18.870  39.070   9.426  0.00  0.00    +0.150 HD
BRANCH  32  36
ATOM     36  CA  VAL A   2      20.483  37.263   8.608  0.00  0.00    +0.148 C 
BRANCH  36  39
ATOM     37  C   LEU A   1      18.319  36.367   7.972  0.00  0.00    +0.238 C 
ATOM     38  O   LEU A   1      18.371  35.509   8.853  0.00  0.00    -0.274 OA
ATOM     39  N   VAL A   2      19.288  37.257   7.775  0.00  0.00    -0.297 N 
ATOM     40  H   VAL A   2      19.191  37.960   7.014  0.00  0.00    +0.150 HD
BRANCH  37  41
ATOM     41  CA  LEU A   1      17.115  36.459   7.041  0.00  0.00    +0.145 C 
BRANCH  41  42
ATOM     42  N   LEU A   1      16.722  37.860   6.914  0.00  0.00    -0.238 NA
ATOM     43  H   LEU A   1      16.843  38.349   6.004  0.00  0.00    +0.142 HD
ENDBRANCH  41  42
BRANCH  41  44
ATOM     44  CB  LEU A   1      17.483  35.863   5.679  0.00  0.00    +0.026 C 
BRANCH  44  45
ATOM     45  CG  LEU A   1      18.113  34.464   5.706  0.00  0.00    +0.002 C 
ATOM     46  CD2 LEU A   1      17.151  33.467   6.344  0.00  0.00    +0.000 C 
ATOM     47  CD1 LEU A   1      18.460  34.041   4.290  0.00  0.00    +0.000 C 
ENDBRANCH  44  45
ENDBRANCH  41  44
ENDBRANCH  37  41
ENDBRANCH  36  39
BRANCH  36  48
ATOM     48  CB  VAL A   2      21.502  38.324   8.125  0.00  0.00    +0.027 C 
ATOM     49  CG2 VAL A   2      22.723  38.326   9.033  0.00  0.00    +0.002 C 
ATOM     50  CG1 VAL A   2      21.913  38.028   6.692  0.00  0.00    +0.002 C 
ENDBRANCH  36  48
ENDBRANCH  32  36
ENDBRANCH  31  34
BRANCH  31  51
ATOM     51  CB  ASN A   3      17.904  40.161  11.525  0.00  0.00    +0.114 C 
BRANCH  51  52
ATOM     52  CG  ASN A   3      18.689  41.456  11.591  0.00  0.00    +0.222 C 
ATOM     53  ND2 ASN A   3      19.782  41.450  12.347  0.00  0.00    -0.329 N 
ATOM     54 HD21 ASN A   3      20.067  40.581  12.843  0.00  0.00    +0.145 HD
ATOM     55 HD22 ASN A   3      20.353  42.314  12.443  0.00  0.00    +0.145 HD
ATOM     56  OD1 ASN A   3      18.308  42.457  10.983  0.00  0.00    -0.275 OA
ENDBRANCH  51  52
ENDBRANCH  31  51
ENDBRANCH   1  31
TORSDOF 22
REMARK  Name = ../refined-set-2016/1nq7/1nq7_pocket.pdb
REMARK  235 active torsions:
REMARK  status: ('A' for Active; 'I' for Inactive)
REMARK    1  A    between atoms: _1  and  _3
REMARK    2  A    between atoms: _3  and  _4
REMARK    3  A    between atoms: _3  and  _6
REMARK    4  A    between atoms: _6  and  _7
REMARK    5  A    between atoms: _12  and  _14
REMARK    6  A    between atoms: _14  and  _15
REMARK    7  A    between atoms: _14  and  _17
REMARK    8  A    between atoms: _17  and  _18
REMARK    9  A    between atoms: _21  and  _23
REMARK   10  A    between atoms: _23  and  _24
REMARK   11  A    between atoms: _23  and  _26
REMARK   12  A    between atoms: _28  and  _30
REMARK   13  A    between atoms: _30  and  _31
REMARK   14  A    between atoms: _30  and  _33
REMARK   15  A    between atoms: _33  and  _34
REMARK   16  A    between atoms: _34  and  _35
REMARK   17  A    between atoms: _40  and  _42
REMARK   18  A    between atoms: _42  and  _43
REMARK   19  A    between atoms: _42  and  _45
REMARK   20  A    between atoms: _45  and  _46
REMARK   21  A    between atoms: _51  and  _52
REMARK   22  A    between atoms: _54  and  _56
REMARK   23  A    between atoms: _56  and  _57
REMARK   24  A    between atoms: _56  and  _59
REMARK   25  A    between atoms: _59  and  _60
REMARK   26  A    between atoms: _63  and  _65
REMARK   27  A    between atoms: _65  and  _66
REMARK   28  A    between atoms: _65  and  _68
REMARK   29  A    between atoms: _68  and  _69
REMARK   30  A    between atoms: _72  and  _74
REMARK   31  A    between atoms: _74  and  _75
REMARK   32  A    between atoms: _74  and  _77
REMARK   33  A    between atoms: _77  and  _78
REMARK   34  A    between atoms: _81  and  _83
REMARK   35  A    between atoms: _83  and  _84
REMARK   36  A    between atoms: _83  and  _86
REMARK   37  A    between atoms: _86  and  _87
REMARK   38  A    between atoms: _97  and  _99
REMARK   39  A    between atoms: _99  and  _100
REMARK   40  A    between atoms: _99  and  _102
REMARK   41  A    between atoms: _102  and  _103
REMARK   42  A    between atoms: _103  and  _104
REMARK   43  A    between atoms: _109  and  _111
REMARK   44  A    between atoms: _111  and  _112
REMARK   45  A    between atoms: _111  and  _114
REMARK   46  A    between atoms: _116  and  _118
REMARK   47  A    between atoms: _118  and  _119
REMARK   48  A    between atoms: _122  and  _124
REMARK   49  A    between atoms: _124  and  _125
REMARK   50  A    between atoms: _124  and  _127
REMARK   51  A    between atoms: _127  and  _128
REMARK   52  A    between atoms: _128  and  _129
REMARK   53  A    between atoms: _134  and  _136
REMARK   54  A    between atoms: _136  and  _137
REMARK   55  A    between atoms: _136  and  _139
REMARK   56  A    between atoms: _139  and  _140
REMARK   57  A    between atoms: _143  and  _145
REMARK   58  A    between atoms: _145  and  _146
REMARK   59  A    between atoms: _145  and  _148
REMARK   60  A    between atoms: _148  and  _149
REMARK   61  A    between atoms: _154  and  _156
REMARK   62  A    between atoms: _156  and  _157
REMARK   63  A    between atoms: _160  and  _162
REMARK   64  A    between atoms: _162  and  _163
REMARK   65  A    between atoms: _162  and  _165
REMARK   66  A    between atoms: _165  and  _166
REMARK   67  A    between atoms: _169  and  _171
REMARK   68  A    between atoms: _171  and  _172
REMARK   69  A    between atoms: _171  and  _174
REMARK   70  A    between atoms: _174  and  _175
REMARK   71  A    between atoms: _180  and  _181
REMARK   72  A    between atoms: _183  and  _185
REMARK   73  A    between atoms: _185  and  _186
REMARK   74  A    between atoms: _185  and  _188
REMARK   75  A    between atoms: _191  and  _193
REMARK   76  A    between atoms: _193  and  _194
REMARK   77  A    between atoms: _193  and  _196
REMARK   78  A    between atoms: _198  and  _200
REMARK   79  A    between atoms: _200  and  _201
REMARK   80  A    between atoms: _200  and  _203
REMARK   81  A    between atoms: _203  and  _204
REMARK   82  A    between atoms: _207  and  _209
REMARK   83  A    between atoms: _209  and  _210
REMARK   84  A    between atoms: _209  and  _212
REMARK   85  A    between atoms: _212  and  _213
REMARK   86  A    between atoms: _213  and  _214
REMARK   87  A    between atoms: _217  and  _219
REMARK   88  A    between atoms: _219  and  _220
REMARK   89  A    between atoms: _219  and  _222
REMARK   90  A    between atoms: _225  and  _227
REMARK   91  A    between atoms: _227  and  _228
REMARK   92  A    between atoms: _227  and  _230
REMARK   93  A    between atoms: _233  and  _235
REMARK   94  A    between atoms: _235  and  _236
REMARK   95  A    between atoms: _235  and  _238
REMARK   96  A    between atoms: _238  and  _239
REMARK   97  A    between atoms: _242  and  _244
REMARK   98  A    between atoms: _244  and  _245
REMARK   99  A    between atoms: _244  and  _247
REMARK  100  A    between atoms: _250  and  _252
REMARK  101  A    between atoms: _252  and  _253
REMARK  102  A    between atoms: _252  and  _255
REMARK  103  A    between atoms: _255  and  _256
REMARK  104  A    between atoms: _256  and  _257
REMARK  105  A    between atoms: _257  and  _258
REMARK  106  A    between atoms: _267  and  _269
REMARK  107  A    between atoms: _269  and  _270
REMARK  108  A    between atoms: _269  and  _272
REMARK  109  A    between atoms: _272  and  _273
REMARK  110  A    between atoms: _273  and  _274
REMARK  111  A    between atoms: _276  and  _278
REMARK  112  A    between atoms: _278  and  _279
REMARK  113  A    between atoms: _278  and  _281
REMARK  114  A    between atoms: _283  and  _285
REMARK  115  A    between atoms: _285  and  _286
REMARK  116  A    between atoms: _285  and  _288
REMARK  117  A    between atoms: _288  and  _289
REMARK  118  A    between atoms: _289  and  _290
REMARK  119  A    between atoms: _290  and  _291
REMARK  120  A    between atoms: _300  and  _302
REMARK  121  A    between atoms: _302  and  _303
REMARK  122  A    between atoms: _306  and  _308
REMARK  123  A    between atoms: _308  and  _309
REMARK  124  A    between atoms: _308  and  _311
REMARK  125  A    between atoms: _311  and  _312
REMARK  126  A    between atoms: _318  and  _320
REMARK  127  A    between atoms: _320  and  _321
REMARK  128  A    between atoms: _320  and  _323
REMARK  129  A    between atoms: _326  and  _328
REMARK  130  A    between atoms: _328  and  _329
REMARK  131  A    between atoms: _328  and  _331
REMARK  132  A    between atoms: _331  and  _332
REMARK  133  A    between atoms: _335  and  _337
REMARK  134  A    between atoms: _337  and  _338
REMARK  135  A    between atoms: _337  and  _340
REMARK  136  A    between atoms: _340  and  _341
REMARK  137  A    between atoms: _347  and  _349
REMARK  138  A    between atoms: _349  and  _350
REMARK  139  A    between atoms: _349  and  _352
REMARK  140  A    between atoms: _352  and  _353
REMARK  141  A    between atoms: _353  and  _354
REMARK  142  A    between atoms: _357  and  _359
REMARK  143  A    between atoms: _359  and  _360
REMARK  144  A    between atoms: _362  and  _364
REMARK  145  A    between atoms: _364  and  _365
REMARK  146  A    between atoms: _367  and  _369
REMARK  147  A    between atoms: _369  and  _370
REMARK  148  A    between atoms: _372  and  _374
REMARK  149  A    between atoms: _374  and  _375
REMARK  150  A    between atoms: _374  and  _377
REMARK  151  A    between atoms: _377  and  _378
REMARK  152  A    between atoms: _378  and  _379
REMARK  153  A    between atoms: _381  and  _383
REMARK  154  A    between atoms: _383  and  _384
REMARK  155  A    between atoms: _383  and  _386
REMARK  156  A    between atoms: _386  and  _387
REMARK  157  A    between atoms: _387  and  _388
REMARK  158  A    between atoms: _390  and  _392
REMARK  159  A    between atoms: _392  and  _393
REMARK  160  A    between atoms: _392  and  _395
REMARK  161  A    between atoms: _395  and  _396
REMARK  162  A    between atoms: _402  and  _404
REMARK  163  A    between atoms: _404  and  _405
REMARK  164  A    between atoms: _404  and  _407
REMARK  165  A    between atoms: _407  and  _408
REMARK  166  A    between atoms: _411  and  _413
REMARK  167  A    between atoms: _413  and  _414
REMARK  168  A    between atoms: _413  and  _416
REMARK  169  A    between atoms: _416  and  _417
REMARK  170  A    between atoms: _419  and  _421
REMARK  171  A    between atoms: _421  and  _422
REMARK  172  A    between atoms: _421  and  _424
REMARK  173  A    between atoms: _424  and  _425
REMARK  174  A    between atoms: _428  and  _430
REMARK  175  A    between atoms: _430  and  _431
REMARK  176  A    between atoms: _430  and  _433
REMARK  177  A    between atoms: _436  and  _438
REMARK  178  A    between atoms: _438  and  _439
REMARK  179  A    between atoms: _438  and  _441
REMARK  180  A    between atoms: _441  and  _442
REMARK  181  A    between atoms: _447  and  _449
REMARK  182  A    between atoms: _449  and  _450
REMARK  183  A    between atoms: _449  and  _452
REMARK  184  A    between atoms: _452  and  _453
REMARK  185  A    between atoms: _453  and  _454
REMARK  186  A    between atoms: _457  and  _459
REMARK  187  A    between atoms: _459  and  _460
REMARK  188  A    between atoms: _463  and  _465
REMARK  189  A    between atoms: _465  and  _466
REMARK  190  A    between atoms: _465  and  _468
REMARK  191  A    between atoms: _468  and  _469
REMARK  192  A    between atoms: _475  and  _477
REMARK  193  A    between atoms: _477  and  _478
REMARK  194  A    between atoms: _477  and  _480
REMARK  195  A    between atoms: _480  and  _481
REMARK  196  A    between atoms: _487  and  _489
REMARK  197  A    between atoms: _489  and  _490
REMARK  198  A    between atoms: _489  and  _492
REMARK  199  A    between atoms: _492  and  _493
REMARK  200  A    between atoms: _496  and  _498
REMARK  201  A    between atoms: _498  and  _499
REMARK  202  A    between atoms: _498  and  _501
REMARK  203  A    between atoms: _504  and  _506
REMARK  204  A    between atoms: _506  and  _507
REMARK  205  A    between atoms: _506  and  _509
REMARK  206  A    between atoms: _511  and  _513
REMARK  207  A    between atoms: _513  and  _514
REMARK  208  A    between atoms: _513  and  _516
REMARK  209  A    between atoms: _516  and  _517
REMARK  210  A    between atoms: _522  and  _524
REMARK  211  A    between atoms: _524  and  _525
REMARK  212  A    between atoms: _524  and  _527
REMARK  213  A    between atoms: _527  and  _528
REMARK  214  A    between atoms: _531  and  _533
REMARK  215  A    between atoms: _533  and  _534
REMARK  216  A    between atoms: _533  and  _536
REMARK  217  A    between atoms: _536  and  _537
REMARK  218  A    between atoms: _542  and  _544
REMARK  219  A    between atoms: _544  and  _545
REMARK  220  A    between atoms: _547  and  _549
REMARK  221  A    between atoms: _549  and  _550
REMARK  222  A    between atoms: _549  and  _552
REMARK  223  A    between atoms: _552  and  _553
REMARK  224  A    between atoms: _553  and  _554
REMARK  225  A    between atoms: _554  and  _555
REMARK  226  A    between atoms: _555  and  _556
REMARK  227  A    between atoms: _560  and  _562
REMARK  228  A    between atoms: _562  and  _563
REMARK  229  A    between atoms: _562  and  _565
REMARK  230  A    between atoms: _565  and  _566
REMARK  231  A    between atoms: _571  and  _572
REMARK  232  A    between atoms: _574  and  _576
REMARK  233  A    between atoms: _576  and  _577
REMARK  234  A    between atoms: _576  and  _579
REMARK  235  A    between atoms: _579  and  _580
REMARK                            x       y       z     vdW  Elec       q    Type
REMARK                         _______ _______ _______ _____ _____    ______ ____
ROOT
ATOM      1  CB  PHE A   1      17.635  31.342  15.696  0.00  0.00    +0.051 C 
ENDROOT
BRANCH   1   2
ATOM      2  CG  PHE A   1      17.630  29.890  16.070  0.00  0.00    -0.020 A 
ATOM      3  CD2 PHE A   1      16.594  29.358  16.830  0.00  0.00    -0.004 A 
ATOM      4  CE2 PHE A   1      16.625  28.031  17.251  0.00  0.00    -0.000 A 
ATOM      5  CZ  PHE A   1      17.698  27.218  16.905  0.00  0.00    -0.000 A 
ATOM      6  CE1 PHE A   1      18.737  27.733  16.143  0.00  0.00    -0.000 A 
ATOM      7  CD1 PHE A   1      18.699  29.065  15.725  0.00  0.00    -0.004 A 
ENDBRANCH   1   2
BRANCH   1   8
ATOM      8  CA  PHE A   1      17.972  32.261  16.869  0.00  0.00    +0.137 C 
BRANCH   8   9
ATOM      9  N   PHE A   1      18.139  33.639  16.426  0.00  0.00    -0.239 NA
ATOM     10  H   PHE A   1      18.073  33.867  15.413  0.00  0.00    +0.142 HD
ENDBRANCH   8   9
BRANCH   8  11
ATOM     11  C   PHE A   1      19.257  31.764  17.526  0.00  0.00    +0.224 C 
ATOM     12  O   PHE A   1      19.222  31.173  18.602  0.00  0.00    -0.287 OA
ENDBRANCH   8  11
ENDBRANCH   1   8
TORSDOF 4
REMARK  Name = ../refined-set-2016/1nq7/1nq7_pocket.pdb
REMARK  235 active torsions:
REMARK  status: ('A' for Active; 'I' for Inactive)
REMARK    1  A    between atoms: _1  and  _3
REMARK    2  A    between atoms: _3  and  _4
REMARK    3  A    between atoms: _3  and  _6
REMARK    4  A    between atoms: _6  and  _7
REMARK    5  A    between atoms: _12  and  _14
REMARK    6  A    between atoms: _14  and  _15
REMARK    7  A    between atoms: _14  and  _17
REMARK    8  A    between atoms: _17  and  _18
REMARK    9  A    between atoms: _21  and  _23
REMARK   10  A    between atoms: _23  and  _24
REMARK   11  A    between atoms: _23  and  _26
REMARK   12  A    between atoms: _28  and  _30
REMARK   13  A    between atoms: _30  and  _31
REMARK   14  A    between atoms: _30  and  _33
REMARK   15  A    between atoms: _33  and  _34
REMARK   16  A    between atoms: _34  and  _35
REMARK   17  A    between atoms: _40  and  _42
REMARK   18  A    between atoms: _42  and  _43
REMARK   19  A    between atoms: _42  and  _45
REMARK   20  A    between atoms: _45  and  _46
REMARK   21  A    between atoms: _51  and  _52
REMARK   22  A    between atoms: _54  and  _56
REMARK   23  A    between atoms: _56  and  _57
REMARK   24  A    between atoms: _56  and  _59
REMARK   25  A    between atoms: _59  and  _60
REMARK   26  A    between atoms: _63  and  _65
REMARK   27  A    between atoms: _65  and  _66
REMARK   28  A    between atoms: _65  and  _68
REMARK   29  A    between atoms: _68  and  _69
REMARK   30  A    between atoms: _72  and  _74
REMARK   31  A    between atoms: _74  and  _75
REMARK   32  A    between atoms: _74  and  _77
REMARK   33  A    between atoms: _77  and  _78
REMARK   34  A    between atoms: _81  and  _83
REMARK   35  A    between atoms: _83  and  _84
REMARK   36  A    between atoms: _83  and  _86
REMARK   37  A    between atoms: _86  and  _87
REMARK   38  A    between atoms: _97  and  _99
REMARK   39  A    between atoms: _99  and  _100
REMARK   40  A    between atoms: _99  and  _102
REMARK   41  A    between atoms: _102  and  _103
REMARK   42  A    between atoms: _103  and  _104
REMARK   43  A    between atoms: _109  and  _111
REMARK   44  A    between atoms: _111  and  _112
REMARK   45  A    between atoms: _111  and  _114
REMARK   46  A    between atoms: _116  and  _118
REMARK   47  A    between atoms: _118  and  _119
REMARK   48  A    between atoms: _122  and  _124
REMARK   49  A    between atoms: _124  and  _125
REMARK   50  A    between atoms: _124  and  _127
REMARK   51  A    between atoms: _127  and  _128
REMARK   52  A    between atoms: _128  and  _129
REMARK   53  A    between atoms: _134  and  _136
REMARK   54  A    between atoms: _136  and  _137
REMARK   55  A    between atoms: _136  and  _139
REMARK   56  A    between atoms: _139  and  _140
REMARK   57  A    between atoms: _143  and  _145
REMARK   58  A    between atoms: _145  and  _146
REMARK   59  A    between atoms: _145  and  _148
REMARK   60  A    between atoms: _148  and  _149
REMARK   61  A    between atoms: _154  and  _156
REMARK   62  A    between atoms: _156  and  _157
REMARK   63  A    between atoms: _160  and  _162
REMARK   64  A    between atoms: _162  and  _163
REMARK   65  A    between atoms: _162  and  _165
REMARK   66  A    between atoms: _165  and  _166
REMARK   67  A    between atoms: _169  and  _171
REMARK   68  A    between atoms: _171  and  _172
REMARK   69  A    between atoms: _171  and  _174
REMARK   70  A    between atoms: _174  and  _175
REMARK   71  A    between atoms: _180  and  _181
REMARK   72  A    between atoms: _183  and  _185
REMARK   73  A    between atoms: _185  and  _186
REMARK   74  A    between atoms: _185  and  _188
REMARK   75  A    between atoms: _191  and  _193
REMARK   76  A    between atoms: _193  and  _194
REMARK   77  A    between atoms: _193  and  _196
REMARK   78  A    between atoms: _198  and  _200
REMARK   79  A    between atoms: _200  and  _201
REMARK   80  A    between atoms: _200  and  _203
REMARK   81  A    between atoms: _203  and  _204
REMARK   82  A    between atoms: _207  and  _209
REMARK   83  A    between atoms: _209  and  _210
REMARK   84  A    between atoms: _209  and  _212
REMARK   85  A    between atoms: _212  and  _213
REMARK   86  A    between atoms: _213  and  _214
REMARK   87  A    between atoms: _217  and  _219
REMARK   88  A    between atoms: _219  and  _220
REMARK   89  A    between atoms: _219  and  _222
REMARK   90  A    between atoms: _225  and  _227
REMARK   91  A    between atoms: _227  and  _228
REMARK   92  A    between atoms: _227  and  _230
REMARK   93  A    between atoms: _233  and  _235
REMARK   94  A    between atoms: _235  and  _236
REMARK   95  A    between atoms: _235  and  _238
REMARK   96  A    between atoms: _238  and  _239
REMARK   97  A    between atoms: _242  and  _244
REMARK   98  A    between atoms: _244  and  _245
REMARK   99  A    between atoms: _244  and  _247
REMARK  100  A    between atoms: _250  and  _252
REMARK  101  A    between atoms: _252  and  _253
REMARK  102  A    between atoms: _252  and  _255
REMARK  103  A    between atoms: _255  and  _256
REMARK  104  A    between atoms: _256  and  _257
REMARK  105  A    between atoms: _257  and  _258
REMARK  106  A    between atoms: _267  and  _269
REMARK  107  A    between atoms: _269  and  _270
REMARK  108  A    between atoms: _269  and  _272
REMARK  109  A    between atoms: _272  and  _273
REMARK  110  A    between atoms: _273  and  _274
REMARK  111  A    between atoms: _276  and  _278
REMARK  112  A    between atoms: _278  and  _279
REMARK  113  A    between atoms: _278  and  _281
REMARK  114  A    between atoms: _283  and  _285
REMARK  115  A    between atoms: _285  and  _286
REMARK  116  A    between atoms: _285  and  _288
REMARK  117  A    between atoms: _288  and  _289
REMARK  118  A    between atoms: _289  and  _290
REMARK  119  A    between atoms: _290  and  _291
REMARK  120  A    between atoms: _300  and  _302
REMARK  121  A    between atoms: _302  and  _303
REMARK  122  A    between atoms: _306  and  _308
REMARK  123  A    between atoms: _308  and  _309
REMARK  124  A    between atoms: _308  and  _311
REMARK  125  A    between atoms: _311  and  _312
REMARK  126  A    between atoms: _318  and  _320
REMARK  127  A    between atoms: _320  and  _321
REMARK  128  A    between atoms: _320  and  _323
REMARK  129  A    between atoms: _326  and  _328
REMARK  130  A    between atoms: _328  and  _329
REMARK  131  A    between atoms: _328  and  _331
REMARK  132  A    between atoms: _331  and  _332
REMARK  133  A    between atoms: _335  and  _337
REMARK  134  A    between atoms: _337  and  _338
REMARK  135  A    between atoms: _337  and  _340
REMARK  136  A    between atoms: _340  and  _341
REMARK  137  A    between atoms: _347  and  _349
REMARK  138  A    between atoms: _349  and  _350
REMARK  139  A    between atoms: _349  and  _352
REMARK  140  A    between atoms: _352  and  _353
REMARK  141  A    between atoms: _353  and  _354
REMARK  142  A    between atoms: _357  and  _359
REMARK  143  A    between atoms: _359  and  _360
REMARK  144  A    between atoms: _362  and  _364
REMARK  145  A    between atoms: _364  and  _365
REMARK  146  A    between atoms: _367  and  _369
REMARK  147  A    between atoms: _369  and  _370
REMARK  148  A    between atoms: _372  and  _374
REMARK  149  A    between atoms: _374  and  _375
REMARK  150  A    between atoms: _374  and  _377
REMARK  151  A    between atoms: _377  and  _378
REMARK  152  A    between atoms: _378  and  _379
REMARK  153  A    between atoms: _381  and  _383
REMARK  154  A    between atoms: _383  and  _384
REMARK  155  A    between atoms: _383  and  _386
REMARK  156  A    between atoms: _386  and  _387
REMARK  157  A    between atoms: _387  and  _388
REMARK  158  A    between atoms: _390  and  _392
REMARK  159  A    between atoms: _392  and  _393
REMARK  160  A    between atoms: _392  and  _395
REMARK  161  A    between atoms: _395  and  _396
REMARK  162  A    between atoms: _402  and  _404
REMARK  163  A    between atoms: _404  and  _405
REMARK  164  A    between atoms: _404  and  _407
REMARK  165  A    between atoms: _407  and  _408
REMARK  166  A    between atoms: _411  and  _413
REMARK  167  A    between atoms: _413  and  _414
REMARK  168  A    between atoms: _413  and  _416
REMARK  169  A    between atoms: _416  and  _417
REMARK  170  A    between atoms: _419  and  _421
REMARK  171  A    between atoms: _421  and  _422
REMARK  172  A    between atoms: _421  and  _424
REMARK  173  A    between atoms: _424  and  _425
REMARK  174  A    between atoms: _428  and  _430
REMARK  175  A    between atoms: _430  and  _431
REMARK  176  A    between atoms: _430  and  _433
REMARK  177  A    between atoms: _436  and  _438
REMARK  178  A    between atoms: _438  and  _439
REMARK  179  A    between atoms: _438  and  _441
REMARK  180  A    between atoms: _441  and  _442
REMARK  181  A    between atoms: _447  and  _449
REMARK  182  A    between atoms: _449  and  _450
REMARK  183  A    between atoms: _449  and  _452
REMARK  184  A    between atoms: _452  and  _453
REMARK  185  A    between atoms: _453  and  _454
REMARK  186  A    between atoms: _457  and  _459
REMARK  187  A    between atoms: _459  and  _460
REMARK  188  A    between atoms: _463  and  _465
REMARK  189  A    between atoms: _465  and  _466
REMARK  190  A    between atoms: _465  and  _468
REMARK  191  A    between atoms: _468  and  _469
REMARK  192  A    between atoms: _475  and  _477
REMARK  193  A    between atoms: _477  and  _478
REMARK  194  A    between atoms: _477  and  _480
REMARK  195  A    between atoms: _480  and  _481
REMARK  196  A    between atoms: _487  and  _489
REMARK  197  A    between atoms: _489  and  _490
REMARK  198  A    between atoms: _489  and  _492
REMARK  199  A    between atoms: _492  and  _493
REMARK  200  A    between atoms: _496  and  _498
REMARK  201  A    between atoms: _498  and  _499
REMARK  202  A    between atoms: _498  and  _501
REMARK  203  A    between atoms: _504  and  _506
REMARK  204  A    between atoms: _506  and  _507
REMARK  205  A    between atoms: _506  and  _509
REMARK  206  A    between atoms: _511  and  _513
REMARK  207  A    between atoms: _513  and  _514
REMARK  208  A    between atoms: _513  and  _516
REMARK  209  A    between atoms: _516  and  _517
REMARK  210  A    between atoms: _522  and  _524
REMARK  211  A    between atoms: _524  and  _525
REMARK  212  A    between atoms: _524  and  _527
REMARK  213  A    between atoms: _527  and  _528
REMARK  214  A    between atoms: _531  and  _533
REMARK  215  A    between atoms: _533  and  _534
REMARK  216  A    between atoms: _533  and  _536
REMARK  217  A    between atoms: _536  and  _537
REMARK  218  A    between atoms: _542  and  _544
REMARK  219  A    between atoms: _544  and  _545
REMARK  220  A    between atoms: _547  and  _549
REMARK  221  A    between atoms: _549  and  _550
REMARK  222  A    between atoms: _549  and  _552
REMARK  223  A    between atoms: _552  and  _553
REMARK  224  A    between atoms: _553  and  _554
REMARK  225  A    between atoms: _554  and  _555
REMARK  226  A    between atoms: _555  and  _556
REMARK  227  A    between atoms: _560  and  _562
REMARK  228  A    between atoms: _562  and  _563
REMARK  229  A    between atoms: _562  and  _565
REMARK  230  A    between atoms: _565  and  _566
REMARK  231  A    between atoms: _571  and  _572
REMARK  232  A    between atoms: _574  and  _576
REMARK  233  A    between atoms: _576  and  _577
REMARK  234  A    between atoms: _576  and  _579
REMARK  235  A    between atoms: _579  and  _580
REMARK                            x       y       z     vdW  Elec       q    Type
REMARK                         _______ _______ _______ _____ _____    ______ ____
ROOT
ATOM      1  CA  ILE A   1      14.003  26.853  13.275  0.00  0.00    +0.133 C 
ENDROOT
BRANCH   1   2
ATOM      2  N   ILE A   1      12.992  27.405  14.165  0.00  0.00    -0.239 NA
ATOM      3  H   ILE A   1      12.702  26.866  15.006  0.00  0.00    +0.142 HD
ENDBRANCH   1   2
BRANCH   1   4
ATOM      4  CB  ILE A   1      14.476  25.477  13.788  0.00  0.00    +0.023 C 
ATOM      5  CG2 ILE A   1      15.312  24.760  12.718  0.00  0.00    +0.002 C 
BRANCH   4   6
ATOM      6  CG1 ILE A   1      15.246  25.666  15.095  0.00  0.00    +0.002 C 
ATOM      7  CD1 ILE A   1      15.562  24.372  15.820  0.00  0.00    +0.000 C 
ENDBRANCH   4   6
ENDBRANCH   1   4
BRANCH   1   8
ATOM      8  C   ILE A   1      13.407  26.712  11.874  0.00  0.00    +0.224 C 
ATOM      9  O   ILE A   1      14.014  27.112  10.884  0.00  0.00    -0.287 OA
ENDBRANCH   1   8
TORSDOF 4
REMARK  Name = ../refined-set-2016/1nq7/1nq7_pocket.pdb
REMARK  235 active torsions:
REMARK  status: ('A' for Active; 'I' for Inactive)
REMARK    1  A    between atoms: _1  and  _3
REMARK    2  A    between atoms: _3  and  _4
REMARK    3  A    between atoms: _3  and  _6
REMARK    4  A    between atoms: _6  and  _7
REMARK    5  A    between atoms: _12  and  _14
REMARK    6  A    between atoms: _14  and  _15
REMARK    7  A    between atoms: _14  and  _17
REMARK    8  A    between atoms: _17  and  _18
REMARK    9  A    between atoms: _21  and  _23
REMARK   10  A    between atoms: _23  and  _24
REMARK   11  A    between atoms: _23  and  _26
REMARK   12  A    between atoms: _28  and  _30
REMARK   13  A    between atoms: _30  and  _31
REMARK   14  A    between atoms: _30  and  _33
REMARK   15  A    between atoms: _33  and  _34
REMARK   16  A    between atoms: _34  and  _35
REMARK   17  A    between atoms: _40  and  _42
REMARK   18  A    between atoms: _42  and  _43
REMARK   19  A    between atoms: _42  and  _45
REMARK   20  A    between atoms: _45  and  _46
REMARK   21  A    between atoms: _51  and  _52
REMARK   22  A    between atoms: _54  and  _56
REMARK   23  A    between atoms: _56  and  _57
REMARK   24  A    between atoms: _56  and  _59
REMARK   25  A    between atoms: _59  and  _60
REMARK   26  A    between atoms: _63  and  _65
REMARK   27  A    between atoms: _65  and  _66
REMARK   28  A    between atoms: _65  and  _68
REMARK   29  A    between atoms: _68  and  _69
REMARK   30  A    between atoms: _72  and  _74
REMARK   31  A    between atoms: _74  and  _75
REMARK   32  A    between atoms: _74  and  _77
REMARK   33  A    between atoms: _77  and  _78
REMARK   34  A    between atoms: _81  and  _83
REMARK   35  A    between atoms: _83  and  _84
REMARK   36  A    between atoms: _83  and  _86
REMARK   37  A    between atoms: _86  and  _87
REMARK   38  A    between atoms: _97  and  _99
REMARK   39  A    between atoms: _99  and  _100
REMARK   40  A    between atoms: _99  and  _102
REMARK   41  A    between atoms: _102  and  _103
REMARK   42  A    between atoms: _103  and  _104
REMARK   43  A    between atoms: _109  and  _111
REMARK   44  A    between atoms: _111  and  _112
REMARK   45  A    between atoms: _111  and  _114
REMARK   46  A    between atoms: _116  and  _118
REMARK   47  A    between atoms: _118  and  _119
REMARK   48  A    between atoms: _122  and  _124
REMARK   49  A    between atoms: _124  and  _125
REMARK   50  A    between atoms: _124  and  _127
REMARK   51  A    between atoms: _127  and  _128
REMARK   52  A    between atoms: _128  and  _129
REMARK   53  A    between atoms: _134  and  _136
REMARK   54  A    between atoms: _136  and  _137
REMARK   55  A    between atoms: _136  and  _139
REMARK   56  A    between atoms: _139  and  _140
REMARK   57  A    between atoms: _143  and  _145
REMARK   58  A    between atoms: _145  and  _146
REMARK   59  A    between atoms: _145  and  _148
REMARK   60  A    between atoms: _148  and  _149
REMARK   61  A    between atoms: _154  and  _156
REMARK   62  A    between atoms: _156  and  _157
REMARK   63  A    between atoms: _160  and  _162
REMARK   64  A    between atoms: _162  and  _163
REMARK   65  A    between atoms: _162  and  _165
REMARK   66  A    between atoms: _165  and  _166
REMARK   67  A    between atoms: _169  and  _171
REMARK   68  A    between atoms: _171  and  _172
REMARK   69  A    between atoms: _171  and  _174
REMARK   70  A    between atoms: _174  and  _175
REMARK   71  A    between atoms: _180  and  _181
REMARK   72  A    between atoms: _183  and  _185
REMARK   73  A    between atoms: _185  and  _186
REMARK   74  A    between atoms: _185  and  _188
REMARK   75  A    between atoms: _191  and  _193
REMARK   76  A    between atoms: _193  and  _194
REMARK   77  A    between atoms: _193  and  _196
REMARK   78  A    between atoms: _198  and  _200
REMARK   79  A    between atoms: _200  and  _201
REMARK   80  A    between atoms: _200  and  _203
REMARK   81  A    between atoms: _203  and  _204
REMARK   82  A    between atoms: _207  and  _209
REMARK   83  A    between atoms: _209  and  _210
REMARK   84  A    between atoms: _209  and  _212
REMARK   85  A    between atoms: _212  and  _213
REMARK   86  A    between atoms: _213  and  _214
REMARK   87  A    between atoms: _217  and  _219
REMARK   88  A    between atoms: _219  and  _220
REMARK   89  A    between atoms: _219  and  _222
REMARK   90  A    between atoms: _225  and  _227
REMARK   91  A    between atoms: _227  and  _228
REMARK   92  A    between atoms: _227  and  _230
REMARK   93  A    between atoms: _233  and  _235
REMARK   94  A    between atoms: _235  and  _236
REMARK   95  A    between atoms: _235  and  _238
REMARK   96  A    between atoms: _238  and  _239
REMARK   97  A    between atoms: _242  and  _244
REMARK   98  A    between atoms: _244  and  _245
REMARK   99  A    between atoms: _244  and  _247
REMARK  100  A    between atoms: _250  and  _252
REMARK  101  A    between atoms: _252  and  _253
REMARK  102  A    between atoms: _252  and  _255
REMARK  103  A    between atoms: _255  and  _256
REMARK  104  A    between atoms: _256  and  _257
REMARK  105  A    between atoms: _257  and  _258
REMARK  106  A    between atoms: _267  and  _269
REMARK  107  A    between atoms: _269  and  _270
REMARK  108  A    between atoms: _269  and  _272
REMARK  109  A    between atoms: _272  and  _273
REMARK  110  A    between atoms: _273  and  _274
REMARK  111  A    between atoms: _276  and  _278
REMARK  112  A    between atoms: _278  and  _279
REMARK  113  A    between atoms: _278  and  _281
REMARK  114  A    between atoms: _283  and  _285
REMARK  115  A    between atoms: _285  and  _286
REMARK  116  A    between atoms: _285  and  _288
REMARK  117  A    between atoms: _288  and  _289
REMARK  118  A    between atoms: _289  and  _290
REMARK  119  A    between atoms: _290  and  _291
REMARK  120  A    between atoms: _300  and  _302
REMARK  121  A    between atoms: _302  and  _303
REMARK  122  A    between atoms: _306  and  _308
REMARK  123  A    between atoms: _308  and  _309
REMARK  124  A    between atoms: _308  and  _311
REMARK  125  A    between atoms: _311  and  _312
REMARK  126  A    between atoms: _318  and  _320
REMARK  127  A    between atoms: _320  and  _321
REMARK  128  A    between atoms: _320  and  _323
REMARK  129  A    between atoms: _326  and  _328
REMARK  130  A    between atoms: _328  and  _329
REMARK  131  A    between atoms: _328  and  _331
REMARK  132  A    between atoms: _331  and  _332
REMARK  133  A    between atoms: _335  and  _337
REMARK  134  A    between atoms: _337  and  _338
REMARK  135  A    between atoms: _337  and  _340
REMARK  136  A    between atoms: _340  and  _341
REMARK  137  A    between atoms: _347  and  _349
REMARK  138  A    between atoms: _349  and  _350
REMARK  139  A    between atoms: _349  and  _352
REMARK  140  A    between atoms: _352  and  _353
REMARK  141  A    between atoms: _353  and  _354
REMARK  142  A    between atoms: _357  and  _359
REMARK  143  A    between atoms: _359  and  _360
REMARK  144  A    between atoms: _362  and  _364
REMARK  145  A    between atoms: _364  and  _365
REMARK  146  A    between atoms: _367  and  _369
REMARK  147  A    between atoms: _369  and  _370
REMARK  148  A    between atoms: _372  and  _374
REMARK  149  A    between atoms: _374  and  _375
REMARK  150  A    between atoms: _374  and  _377
REMARK  151  A    between atoms: _377  and  _378
REMARK  152  A    between atoms: _378  and  _379
REMARK  153  A    between atoms: _381  and  _383
REMARK  154  A    between atoms: _383  and  _384
REMARK  155  A    between atoms: _383  and  _386
REMARK  156  A    between atoms: _386  and  _387
REMARK  157  A    between atoms: _387  and  _388
REMARK  158  A    between atoms: _390  and  _392
REMARK  159  A    between atoms: _392  and  _393
REMARK  160  A    between atoms: _392  and  _395
REMARK  161  A    between atoms: _395  and  _396
REMARK  162  A    between atoms: _402  and  _404
REMARK  163  A    between atoms: _404  and  _405
REMARK  164  A    between atoms: _404  and  _407
REMARK  165  A    between atoms: _407  and  _408
REMARK  166  A    between atoms: _411  and  _413
REMARK  167  A    between atoms: _413  and  _414
REMARK  168  A    between atoms: _413  and  _416
REMARK  169  A    between atoms: _416  and  _417
REMARK  170  A    between atoms: _419  and  _421
REMARK  171  A    between atoms: _421  and  _422
REMARK  172  A    between atoms: _421  and  _424
REMARK  173  A    between atoms: _424  and  _425
REMARK  174  A    between atoms: _428  and  _430
REMARK  175  A    between atoms: _430  and  _431
REMARK  176  A    between atoms: _430  and  _433
REMARK  177  A    between atoms: _436  and  _438
REMARK  178  A    between atoms: _438  and  _439
REMARK  179  A    between atoms: _438  and  _441
REMARK  180  A    between atoms: _441  and  _442
REMARK  181  A    between atoms: _447  and  _449
REMARK  182  A    between atoms: _449  and  _450
REMARK  183  A    between atoms: _449  and  _452
REMARK  184  A    between atoms: _452  and  _453
REMARK  185  A    between atoms: _453  and  _454
REMARK  186  A    between atoms: _457  and  _459
REMARK  187  A    between atoms: _459  and  _460
REMARK  188  A    between atoms: _463  and  _465
REMARK  189  A    between atoms: _465  and  _466
REMARK  190  A    between atoms: _465  and  _468
REMARK  191  A    between atoms: _468  and  _469
REMARK  192  A    between atoms: _475  and  _477
REMARK  193  A    between atoms: _477  and  _478
REMARK  194  A    between atoms: _477  and  _480
REMARK  195  A    between atoms: _480  and  _481
REMARK  196  A    between atoms: _487  and  _489
REMARK  197  A    between atoms: _489  and  _490
REMARK  198  A    between atoms: _489  and  _492
REMARK  199  A    between atoms: _492  and  _493
REMARK  200  A    between atoms: _496  and  _498
REMARK  201  A    between atoms: _498  and  _499
REMARK  202  A    between atoms: _498  and  _501
REMARK  203  A    between atoms: _504  and  _506
REMARK  204  A    between atoms: _506  and  _507
REMARK  205  A    between atoms: _506  and  _509
REMARK  206  A    between atoms: _511  and  _513
REMARK  207  A    between atoms: _513  and  _514
REMARK  208  A    between atoms: _513  and  _516
REMARK  209  A    between atoms: _516  and  _517
REMARK  210  A    between atoms: _522  and  _524
REMARK  211  A    between atoms: _524  and  _525
REMARK  212  A    between atoms: _524  and  _527
REMARK  213  A    between atoms: _527  and  _528
REMARK  214  A    between atoms: _531  and  _533
REMARK  215  A    between atoms: _533  and  _534
REMARK  216  A    between atoms: _533  and  _536
REMARK  217  A    between atoms: _536  and  _537
REMARK  218  A    between atoms: _542  and  _544
REMARK  219  A    between atoms: _544  and  _545
REMARK  220  A    between atoms: _547  and  _549
REMARK  221  A    between atoms: _549  and  _550
REMARK  222  A    between atoms: _549  and  _552
REMARK  223  A    between atoms: _552  and  _553
REMARK  224  A    between atoms: _553  and  _554
REMARK  225  A    between atoms: _554  and  _555
REMARK  226  A    between atoms: _555  and  _556
REMARK  227  A    between atoms: _560  and  _562
REMARK  228  A    between atoms: _562  and  _563
REMARK  229  A    between atoms: _562  and  _565
REMARK  230  A    between atoms: _565  and  _566
REMARK  231  A    between atoms: _571  and  _572
REMARK  232  A    between atoms: _574  and  _576
REMARK  233  A    between atoms: _576  and  _577
REMARK  234  A    between atoms: _576  and  _579
REMARK  235  A    between atoms: _579  and  _580
REMARK                            x       y       z     vdW  Elec       q    Type
REMARK                         _______ _______ _______ _____ _____    ______ ____
ROOT
ATOM      1  C   ASN A   3      11.754  30.263   4.633  0.00  0.00    +0.241 C 
ATOM      2  N   LEU A   4      12.285  31.146   5.475  0.00  0.00    -0.297 N 
ATOM      3  H   LEU A   4      12.464  30.875   6.463  0.00  0.00    +0.150 HD
ATOM      4  O   ASN A   3      11.506  30.531   3.459  0.00  0.00    -0.273 OA
ENDROOT
BRANCH   2   5
ATOM      5  CA  LEU A   4      12.618  32.492   5.022  0.00  0.00    +0.149 C 
BRANCH   5   6
ATOM      6  C   LEU A   4      13.761  32.392   4.011  0.00  0.00    +0.241 C 
ATOM      7  N   HIS A   5      14.686  31.459   4.239  0.00  0.00    -0.297 N 
ATOM      8  H   HIS A   5      14.621  30.866   5.091  0.00  0.00    +0.150 HD
ATOM      9  O   LEU A   4      13.808  33.143   3.036  0.00  0.00    -0.273 OA
BRANCH   7  10
ATOM     10  CA  HIS A   5      15.788  31.263   3.303  0.00  0.00    +0.155 C 
BRANCH  10  11
ATOM     11  C   HIS A   5      15.201  30.901   1.945  0.00  0.00    +0.241 C 
ATOM     12  N   GLY A   6      14.191  30.035   1.953  0.00  0.00    -0.296 N 
ATOM     13  H   GLY A   6      13.852  29.644   2.855  0.00  0.00    +0.150 HD
ATOM     14  O   HIS A   5      15.645  31.398   0.910  0.00  0.00    -0.273 OA
BRANCH  12  15
ATOM     15  CA  GLY A   6      13.560  29.633   0.713  0.00  0.00    +0.163 C 
BRANCH  15  16
ATOM     16  C   GLY A   6      12.900  30.813   0.026  0.00  0.00    +0.229 C 
ATOM     17  O   GLY A   6      12.978  30.949  -1.191  0.00  0.00    -0.286 OA
ENDBRANCH  15  16
ENDBRANCH  12  15
ENDBRANCH  10  11
BRANCH  10  18
ATOM     18  CB  HIS A   5      16.726  30.144   3.802  0.00  0.00    +0.076 C 
BRANCH  18  19
ATOM     19  CG  HIS A   5      17.616  29.569   2.741  0.00  0.00    +0.082 A 
ATOM     20  CD2 HIS A   5      18.850  29.936   2.310  0.00  0.00    +0.115 A 
ATOM     21  NE2 HIS A   5      19.198  29.074   1.297  0.00  0.00    -0.221 NA
ATOM     22  CE1 HIS A   5      18.220  28.212   1.110  0.00  0.00    +0.199 A 
ATOM     23  ND1 HIS A   5      17.253  28.485   1.967  0.00  0.00    -0.227 NA
ENDBRANCH  18  19
ENDBRANCH  10  18
ENDBRANCH   7  10
ENDBRANCH   5   6
BRANCH   5  24
ATOM     24  CB  LEU A   4      13.016  33.382   6.201  0.00  0.00    +0.029 C 
BRANCH  24  25
ATOM     25  CG  LEU A   4      13.299  34.848   5.853  0.00  0.00    +0.002 C 
ATOM     26  CD2 LEU A   4      13.578  35.632   7.125  0.00  0.00    +0.000 C 
ATOM     27  CD1 LEU A   4      12.108  35.442   5.108  0.00  0.00    +0.000 C 
ENDBRANCH  24  25
ENDBRANCH   5  24
ENDBRANCH   2   5
BRANCH   1  28
ATOM     28  CA  ASN A   3      11.470  28.870   5.186  0.00  0.00    +0.158 C 
BRANCH  28  30
ATOM     29  C   CYS A   2      13.713  28.329   5.859  0.00  0.00    +0.242 C 
ATOM     30  N   ASN A   3      12.451  28.552   6.212  0.00  0.00    -0.297 N 
ATOM     31  H   ASN A   3      12.168  28.500   7.211  0.00  0.00    +0.150 HD
ATOM     32  O   CYS A   2      14.081  28.367   4.688  0.00  0.00    -0.273 OA
BRANCH  29  33
ATOM     33  CA  CYS A   2      14.712  28.039   6.974  0.00  0.00    +0.160 C 
BRANCH  33  35
ATOM     34  C   VAL A   1      14.492  30.072   8.232  0.00  0.00    +0.238 C 
ATOM     35  N   CYS A   2      14.393  28.750   8.194  0.00  0.00    -0.297 N 
ATOM     36  H   CYS A   2      14.087  28.226   9.038  0.00  0.00    +0.150 HD
ATOM     37  O   VAL A   1      14.825  30.736   7.253  0.00  0.00    -0.274 OA
BRANCH  34  38
ATOM     38  CA  VAL A   1      14.153  30.737   9.559  0.00  0.00    +0.145 C 
BRANCH  38  39
ATOM     39  CB  VAL A   1      15.357  30.568  10.514  0.00  0.00    +0.025 C 
ATOM     40  CG2 VAL A   1      15.134  31.378  11.781  0.00  0.00    +0.002 C 
ATOM     41  CG1 VAL A   1      16.639  31.015   9.818  0.00  0.00    +0.002 C 
ENDBRANCH  38  39
BRANCH  38  42
ATOM     42  N   VAL A   1      12.934  30.155  10.114  0.00  0.00    -0.238 NA
ATOM     43  H   VAL A   1      12.977  29.628  11.009  0.00  0.00    +0.142 HD
ENDBRANCH  38  42
ENDBRANCH  34  38
ENDBRANCH  33  35
BRANCH  33  44
ATOM     44  CB  CYS A   2      14.834  26.544   7.271  0.00  0.00    +0.098 C 
ATOM     45  SG  CYS A   2      16.294  26.200   8.309  0.00  0.00    -0.080 S 
ENDBRANCH  33  44
ENDBRANCH  29  33
ENDBRANCH  28  30
BRANCH  28  46
ATOM     46  CB  ASN A   3      10.046  28.796   5.741  0.00  0.00    +0.114 C 
BRANCH  46  47
ATOM     47  CG  ASN A   3       9.553  27.367   5.881  0.00  0.00    +0.222 C 
ATOM     48  ND2 ASN A   3       8.722  27.121   6.886  0.00  0.00    -0.329 N 
ATOM     49 HD21 ASN A   3       8.454  27.886   7.538  0.00  0.00    +0.145 HD
ATOM     50 HD22 ASN A   3       8.339  26.164   7.022  0.00  0.00    +0.145 HD
ATOM     51  OD1 ASN A   3       9.904  26.498   5.079  0.00  0.00    -0.275 OA
ENDBRANCH  46  47
ENDBRANCH  28  46
ENDBRANCH   1  28
TORSDOF 20
REMARK  Name = ../refined-set-2016/1nq7/1nq7_pocket.pdb
REMARK  235 active torsions:
REMARK  status: ('A' for Active; 'I' for Inactive)
REMARK    1  A    between atoms: _1  and  _3
REMARK    2  A    between atoms: _3  and  _4
REMARK    3  A    between atoms: _3  and  _6
REMARK    4  A    between atoms: _6  and  _7
REMARK    5  A    between atoms: _12  and  _14
REMARK    6  A    between atoms: _14  and  _15
REMARK    7  A    between atoms: _14  and  _17
REMARK    8  A    between atoms: _17  and  _18
REMARK    9  A    between atoms: _21  and  _23
REMARK   10  A    between atoms: _23  and  _24
REMARK   11  A    between atoms: _23  and  _26
REMARK   12  A    between atoms: _28  and  _30
REMARK   13  A    between atoms: _30  and  _31
REMARK   14  A    between atoms: _30  and  _33
REMARK   15  A    between atoms: _33  and  _34
REMARK   16  A    between atoms: _34  and  _35
REMARK   17  A    between atoms: _40  and  _42
REMARK   18  A    between atoms: _42  and  _43
REMARK   19  A    between atoms: _42  and  _45
REMARK   20  A    between atoms: _45  and  _46
REMARK   21  A    between atoms: _51  and  _52
REMARK   22  A    between atoms: _54  and  _56
REMARK   23  A    between atoms: _56  and  _57
REMARK   24  A    between atoms: _56  and  _59
REMARK   25  A    between atoms: _59  and  _60
REMARK   26  A    between atoms: _63  and  _65
REMARK   27  A    between atoms: _65  and  _66
REMARK   28  A    between atoms: _65  and  _68
REMARK   29  A    between atoms: _68  and  _69
REMARK   30  A    between atoms: _72  and  _74
REMARK   31  A    between atoms: _74  and  _75
REMARK   32  A    between atoms: _74  and  _77
REMARK   33  A    between atoms: _77  and  _78
REMARK   34  A    between atoms: _81  and  _83
REMARK   35  A    between atoms: _83  and  _84
REMARK   36  A    between atoms: _83  and  _86
REMARK   37  A    between atoms: _86  and  _87
REMARK   38  A    between atoms: _97  and  _99
REMARK   39  A    between atoms: _99  and  _100
REMARK   40  A    between atoms: _99  and  _102
REMARK   41  A    between atoms: _102  and  _103
REMARK   42  A    between atoms: _103  and  _104
REMARK   43  A    between atoms: _109  and  _111
REMARK   44  A    between atoms: _111  and  _112
REMARK   45  A    between atoms: _111  and  _114
REMARK   46  A    between atoms: _116  and  _118
REMARK   47  A    between atoms: _118  and  _119
REMARK   48  A    between atoms: _122  and  _124
REMARK   49  A    between atoms: _124  and  _125
REMARK   50  A    between atoms: _124  and  _127
REMARK   51  A    between atoms: _127  and  _128
REMARK   52  A    between atoms: _128  and  _129
REMARK   53  A    between atoms: _134  and  _136
REMARK   54  A    between atoms: _136  and  _137
REMARK   55  A    between atoms: _136  and  _139
REMARK   56  A    between atoms: _139  and  _140
REMARK   57  A    between atoms: _143  and  _145
REMARK   58  A    between atoms: _145  and  _146
REMARK   59  A    between atoms: _145  and  _148
REMARK   60  A    between atoms: _148  and  _149
REMARK   61  A    between atoms: _154  and  _156
REMARK   62  A    between atoms: _156  and  _157
REMARK   63  A    between atoms: _160  and  _162
REMARK   64  A    between atoms: _162  and  _163
REMARK   65  A    between atoms: _162  and  _165
REMARK   66  A    between atoms: _165  and  _166
REMARK   67  A    between atoms: _169  and  _171
REMARK   68  A    between atoms: _171  and  _172
REMARK   69  A    between atoms: _171  and  _174
REMARK   70  A    between atoms: _174  and  _175
REMARK   71  A    between atoms: _180  and  _181
REMARK   72  A    between atoms: _183  and  _185
REMARK   73  A    between atoms: _185  and  _186
REMARK   74  A    between atoms: _185  and  _188
REMARK   75  A    between atoms: _191  and  _193
REMARK   76  A    between atoms: _193  and  _194
REMARK   77  A    between atoms: _193  and  _196
REMARK   78  A    between atoms: _198  and  _200
REMARK   79  A    between atoms: _200  and  _201
REMARK   80  A    between atoms: _200  and  _203
REMARK   81  A    between atoms: _203  and  _204
REMARK   82  A    between atoms: _207  and  _209
REMARK   83  A    between atoms: _209  and  _210
REMARK   84  A    between atoms: _209  and  _212
REMARK   85  A    between atoms: _212  and  _213
REMARK   86  A    between atoms: _213  and  _214
REMARK   87  A    between atoms: _217  and  _219
REMARK   88  A    between atoms: _219  and  _220
REMARK   89  A    between atoms: _219  and  _222
REMARK   90  A    between atoms: _225  and  _227
REMARK   91  A    between atoms: _227  and  _228
REMARK   92  A    between atoms: _227  and  _230
REMARK   93  A    between atoms: _233  and  _235
REMARK   94  A    between atoms: _235  and  _236
REMARK   95  A    between atoms: _235  and  _238
REMARK   96  A    between atoms: _238  and  _239
REMARK   97  A    between atoms: _242  and  _244
REMARK   98  A    between atoms: _244  and  _245
REMARK   99  A    between atoms: _244  and  _247
REMARK  100  A    between atoms: _250  and  _252
REMARK  101  A    between atoms: _252  and  _253
REMARK  102  A    between atoms: _252  and  _255
REMARK  103  A    between atoms: _255  and  _256
REMARK  104  A    between atoms: _256  and  _257
REMARK  105  A    between atoms: _257  and  _258
REMARK  106  A    between atoms: _267  and  _269
REMARK  107  A    between atoms: _269  and  _270
REMARK  108  A    between atoms: _269  and  _272
REMARK  109  A    between atoms: _272  and  _273
REMARK  110  A    between atoms: _273  and  _274
REMARK  111  A    between atoms: _276  and  _278
REMARK  112  A    between atoms: _278  and  _279
REMARK  113  A    between atoms: _278  and  _281
REMARK  114  A    between atoms: _283  and  _285
REMARK  115  A    between atoms: _285  and  _286
REMARK  116  A    between atoms: _285  and  _288
REMARK  117  A    between atoms: _288  and  _289
REMARK  118  A    between atoms: _289  and  _290
REMARK  119  A    between atoms: _290  and  _291
REMARK  120  A    between atoms: _300  and  _302
REMARK  121  A    between atoms: _302  and  _303
REMARK  122  A    between atoms: _306  and  _308
REMARK  123  A    between atoms: _308  and  _309
REMARK  124  A    between atoms: _308  and  _311
REMARK  125  A    between atoms: _311  and  _312
REMARK  126  A    between atoms: _318  and  _320
REMARK  127  A    between atoms: _320  and  _321
REMARK  128  A    between atoms: _320  and  _323
REMARK  129  A    between atoms: _326  and  _328
REMARK  130  A    between atoms: _328  and  _329
REMARK  131  A    between atoms: _328  and  _331
REMARK  132  A    between atoms: _331  and  _332
REMARK  133  A    between atoms: _335  and  _337
REMARK  134  A    between atoms: _337  and  _338
REMARK  135  A    between atoms: _337  and  _340
REMARK  136  A    between atoms: _340  and  _341
REMARK  137  A    between atoms: _347  and  _349
REMARK  138  A    between atoms: _349  and  _350
REMARK  139  A    between atoms: _349  and  _352
REMARK  140  A    between atoms: _352  and  _353
REMARK  141  A    between atoms: _353  and  _354
REMARK  142  A    between atoms: _357  and  _359
REMARK  143  A    between atoms: _359  and  _360
REMARK  144  A    between atoms: _362  and  _364
REMARK  145  A    between atoms: _364  and  _365
REMARK  146  A    between atoms: _367  and  _369
REMARK  147  A    between atoms: _369  and  _370
REMARK  148  A    between atoms: _372  and  _374
REMARK  149  A    between atoms: _374  and  _375
REMARK  150  A    between atoms: _374  and  _377
REMARK  151  A    between atoms: _377  and  _378
REMARK  152  A    between atoms: _378  and  _379
REMARK  153  A    between atoms: _381  and  _383
REMARK  154  A    between atoms: _383  and  _384
REMARK  155  A    between atoms: _383  and  _386
REMARK  156  A    between atoms: _386  and  _387
REMARK  157  A    between atoms: _387  and  _388
REMARK  158  A    between atoms: _390  and  _392
REMARK  159  A    between atoms: _392  and  _393
REMARK  160  A    between atoms: _392  and  _395
REMARK  161  A    between atoms: _395  and  _396
REMARK  162  A    between atoms: _402  and  _404
REMARK  163  A    between atoms: _404  and  _405
REMARK  164  A    between atoms: _404  and  _407
REMARK  165  A    between atoms: _407  and  _408
REMARK  166  A    between atoms: _411  and  _413
REMARK  167  A    between atoms: _413  and  _414
REMARK  168  A    between atoms: _413  and  _416
REMARK  169  A    between atoms: _416  and  _417
REMARK  170  A    between atoms: _419  and  _421
REMARK  171  A    between atoms: _421  and  _422
REMARK  172  A    between atoms: _421  and  _424
REMARK  173  A    between atoms: _424  and  _425
REMARK  174  A    between atoms: _428  and  _430
REMARK  175  A    between atoms: _430  and  _431
REMARK  176  A    between atoms: _430  and  _433
REMARK  177  A    between atoms: _436  and  _438
REMARK  178  A    between atoms: _438  and  _439
REMARK  179  A    between atoms: _438  and  _441
REMARK  180  A    between atoms: _441  and  _442
REMARK  181  A    between atoms: _447  and  _449
REMARK  182  A    between atoms: _449  and  _450
REMARK  183  A    between atoms: _449  and  _452
REMARK  184  A    between atoms: _452  and  _453
REMARK  185  A    between atoms: _453  and  _454
REMARK  186  A    between atoms: _457  and  _459
REMARK  187  A    between atoms: _459  and  _460
REMARK  188  A    between atoms: _463  and  _465
REMARK  189  A    between atoms: _465  and  _466
REMARK  190  A    between atoms: _465  and  _468
REMARK  191  A    between atoms: _468  and  _469
REMARK  192  A    between atoms: _475  and  _477
REMARK  193  A    between atoms: _477  and  _478
REMARK  194  A    between atoms: _477  and  _480
REMARK  195  A    between atoms: _480  and  _481
REMARK  196  A    between atoms: _487  and  _489
REMARK  197  A    between atoms: _489  and  _490
REMARK  198  A    between atoms: _489  and  _492
REMARK  199  A    between atoms: _492  and  _493
REMARK  200  A    between atoms: _496  and  _498
REMARK  201  A    between atoms: _498  and  _499
REMARK  202  A    between atoms: _498  and  _501
REMARK  203  A    between atoms: _504  and  _506
REMARK  204  A    between atoms: _506  and  _507
REMARK  205  A    between atoms: _506  and  _509
REMARK  206  A    between atoms: _511  and  _513
REMARK  207  A    between atoms: _513  and  _514
REMARK  208  A    between atoms: _513  and  _516
REMARK  209  A    between atoms: _516  and  _517
REMARK  210  A    between atoms: _522  and  _524
REMARK  211  A    between atoms: _524  and  _525
REMARK  212  A    between atoms: _524  and  _527
REMARK  213  A    between atoms: _527  and  _528
REMARK  214  A    between atoms: _531  and  _533
REMARK  215  A    between atoms: _533  and  _534
REMARK  216  A    between atoms: _533  and  _536
REMARK  217  A    between atoms: _536  and  _537
REMARK  218  A    between atoms: _542  and  _544
REMARK  219  A    between atoms: _544  and  _545
REMARK  220  A    between atoms: _547  and  _549
REMARK  221  A    between atoms: _549  and  _550
REMARK  222  A    between atoms: _549  and  _552
REMARK  223  A    between atoms: _552  and  _553
REMARK  224  A    between atoms: _553  and  _554
REMARK  225  A    between atoms: _554  and  _555
REMARK  226  A    between atoms: _555  and  _556
REMARK  227  A    between atoms: _560  and  _562
REMARK  228  A    between atoms: _562  and  _563
REMARK  229  A    between atoms: _562  and  _565
REMARK  230  A    between atoms: _565  and  _566
REMARK  231  A    between atoms: _571  and  _572
REMARK  232  A    between atoms: _574  and  _576
REMARK  233  A    between atoms: _576  and  _577
REMARK  234  A    between atoms: _576  and  _579
REMARK  235  A    between atoms: _579  and  _580
REMARK                            x       y       z     vdW  Elec       q    Type
REMARK                         _______ _______ _______ _____ _____    ______ ____
ROOT
ATOM      1  CG  LYS A   1      15.500  35.642   1.953  0.00  0.00    -0.000 C 
ENDROOT
BRANCH   1   2
ATOM      2  CB  LYS A   1      15.895  35.075   0.646  0.00  0.00    +0.025 C 
BRANCH   2   3
ATOM      3  CA  LYS A   1      14.732  34.902  -0.316  0.00  0.00    +0.133 C 
BRANCH   3   4
ATOM      4  N   LYS A   1      13.709  34.026   0.249  0.00  0.00    -0.239 NA
ATOM      5  H   LYS A   1      13.867  33.587   1.178  0.00  0.00    +0.142 HD
ENDBRANCH   3   4
BRANCH   3   6
ATOM      6  C   LYS A   1      15.283  34.326  -1.598  0.00  0.00    +0.224 C 
ATOM      7  O   LYS A   1      15.532  35.053  -2.559  0.00  0.00    -0.287 OA
ENDBRANCH   3   6
ENDBRANCH   2   3
ENDBRANCH   1   2
BRANCH   1   8
ATOM      8  CD  LYS A   1      14.939  37.007   1.754  0.00  0.00    -0.024 C 
BRANCH   8   9
ATOM      9  CE  LYS A   1      14.606  37.596   3.086  0.00  0.00    -0.086 C 
BRANCH   9  10
ATOM     10  NZ  LYS A   1      14.840  39.017   2.985  0.00  0.00    +0.380 N 
ATOM     11  HZ1 LYS A   1      14.619  39.469   3.895  0.00  0.00    -0.089 HD
ATOM     12  HZ2 LYS A   1      15.838  39.187   2.745  0.00  0.00    -0.089 HD
ATOM     13  HZ3 LYS A   1      14.231  39.415   2.242  0.00  0.00    -0.089 HD
ENDBRANCH   9  10
ENDBRANCH   8   9
ENDBRANCH   1   8
TORSDOF 7
REMARK  Name = ../refined-set-2016/1nq7/1nq7_pocket.pdb
REMARK  235 active torsions:
REMARK  status: ('A' for Active; 'I' for Inactive)
REMARK    1  A    between atoms: _1  and  _3
REMARK    2  A    between atoms: _3  and  _4
REMARK    3  A    between atoms: _3  and  _6
REMARK    4  A    between atoms: _6  and  _7
REMARK    5  A    between atoms: _12  and  _14
REMARK    6  A    between atoms: _14  and  _15
REMARK    7  A    between atoms: _14  and  _17
REMARK    8  A    between atoms: _17  and  _18
REMARK    9  A    between atoms: _21  and  _23
REMARK   10  A    between atoms: _23  and  _24
REMARK   11  A    between atoms: _23  and  _26
REMARK   12  A    between atoms: _28  and  _30
REMARK   13  A    between atoms: _30  and  _31
REMARK   14  A    between atoms: _30  and  _33
REMARK   15  A    between atoms: _33  and  _34
REMARK   16  A    between atoms: _34  and  _35
REMARK   17  A    between atoms: _40  and  _42
REMARK   18  A    between atoms: _42  and  _43
REMARK   19  A    between atoms: _42  and  _45
REMARK   20  A    between atoms: _45  and  _46
REMARK   21  A    between atoms: _51  and  _52
REMARK   22  A    between atoms: _54  and  _56
REMARK   23  A    between atoms: _56  and  _57
REMARK   24  A    between atoms: _56  and  _59
REMARK   25  A    between atoms: _59  and  _60
REMARK   26  A    between atoms: _63  and  _65
REMARK   27  A    between atoms: _65  and  _66
REMARK   28  A    between atoms: _65  and  _68
REMARK   29  A    between atoms: _68  and  _69
REMARK   30  A    between atoms: _72  and  _74
REMARK   31  A    between atoms: _74  and  _75
REMARK   32  A    between atoms: _74  and  _77
REMARK   33  A    between atoms: _77  and  _78
REMARK   34  A    between atoms: _81  and  _83
REMARK   35  A    between atoms: _83  and  _84
REMARK   36  A    between atoms: _83  and  _86
REMARK   37  A    between atoms: _86  and  _87
REMARK   38  A    between atoms: _97  and  _99
REMARK   39  A    between atoms: _99  and  _100
REMARK   40  A    between atoms: _99  and  _102
REMARK   41  A    between atoms: _102  and  _103
REMARK   42  A    between atoms: _103  and  _104
REMARK   43  A    between atoms: _109  and  _111
REMARK   44  A    between atoms: _111  and  _112
REMARK   45  A    between atoms: _111  and  _114
REMARK   46  A    between atoms: _116  and  _118
REMARK   47  A    between atoms: _118  and  _119
REMARK   48  A    between atoms: _122  and  _124
REMARK   49  A    between atoms: _124  and  _125
REMARK   50  A    between atoms: _124  and  _127
REMARK   51  A    between atoms: _127  and  _128
REMARK   52  A    between atoms: _128  and  _129
REMARK   53  A    between atoms: _134  and  _136
REMARK   54  A    between atoms: _136  and  _137
REMARK   55  A    between atoms: _136  and  _139
REMARK   56  A    between atoms: _139  and  _140
REMARK   57  A    between atoms: _143  and  _145
REMARK   58  A    between atoms: _145  and  _146
REMARK   59  A    between atoms: _145  and  _148
REMARK   60  A    between atoms: _148  and  _149
REMARK   61  A    between atoms: _154  and  _156
REMARK   62  A    between atoms: _156  and  _157
REMARK   63  A    between atoms: _160  and  _162
REMARK   64  A    between atoms: _162  and  _163
REMARK   65  A    between atoms: _162  and  _165
REMARK   66  A    between atoms: _165  and  _166
REMARK   67  A    between atoms: _169  and  _171
REMARK   68  A    between atoms: _171  and  _172
REMARK   69  A    between atoms: _171  and  _174
REMARK   70  A    between atoms: _174  and  _175
REMARK   71  A    between atoms: _180  and  _181
REMARK   72  A    between atoms: _183  and  _185
REMARK   73  A    between atoms: _185  and  _186
REMARK   74  A    between atoms: _185  and  _188
REMARK   75  A    between atoms: _191  and  _193
REMARK   76  A    between atoms: _193  and  _194
REMARK   77  A    between atoms: _193  and  _196
REMARK   78  A    between atoms: _198  and  _200
REMARK   79  A    between atoms: _200  and  _201
REMARK   80  A    between atoms: _200  and  _203
REMARK   81  A    between atoms: _203  and  _204
REMARK   82  A    between atoms: _207  and  _209
REMARK   83  A    between atoms: _209  and  _210
REMARK   84  A    between atoms: _209  and  _212
REMARK   85  A    between atoms: _212  and  _213
REMARK   86  A    between atoms: _213  and  _214
REMARK   87  A    between atoms: _217  and  _219
REMARK   88  A    between atoms: _219  and  _220
REMARK   89  A    between atoms: _219  and  _222
REMARK   90  A    between atoms: _225  and  _227
REMARK   91  A    between atoms: _227  and  _228
REMARK   92  A    between atoms: _227  and  _230
REMARK   93  A    between atoms: _233  and  _235
REMARK   94  A    between atoms: _235  and  _236
REMARK   95  A    between atoms: _235  and  _238
REMARK   96  A    between atoms: _238  and  _239
REMARK   97  A    between atoms: _242  and  _244
REMARK   98  A    between atoms: _244  and  _245
REMARK   99  A    between atoms: _244  and  _247
REMARK  100  A    between atoms: _250  and  _252
REMARK  101  A    between atoms: _252  and  _253
REMARK  102  A    between atoms: _252  and  _255
REMARK  103  A    between atoms: _255  and  _256
REMARK  104  A    between atoms: _256  and  _257
REMARK  105  A    between atoms: _257  and  _258
REMARK  106  A    between atoms: _267  and  _269
REMARK  107  A    between atoms: _269  and  _270
REMARK  108  A    between atoms: _269  and  _272
REMARK  109  A    between atoms: _272  and  _273
REMARK  110  A    between atoms: _273  and  _274
REMARK  111  A    between atoms: _276  and  _278
REMARK  112  A    between atoms: _278  and  _279
REMARK  113  A    between atoms: _278  and  _281
REMARK  114  A    between atoms: _283  and  _285
REMARK  115  A    between atoms: _285  and  _286
REMARK  116  A    between atoms: _285  and  _288
REMARK  117  A    between atoms: _288  and  _289
REMARK  118  A    between atoms: _289  and  _290
REMARK  119  A    between atoms: _290  and  _291
REMARK  120  A    between atoms: _300  and  _302
REMARK  121  A    between atoms: _302  and  _303
REMARK  122  A    between atoms: _306  and  _308
REMARK  123  A    between atoms: _308  and  _309
REMARK  124  A    between atoms: _308  and  _311
REMARK  125  A    between atoms: _311  and  _312
REMARK  126  A    between atoms: _318  and  _320
REMARK  127  A    between atoms: _320  and  _321
REMARK  128  A    between atoms: _320  and  _323
REMARK  129  A    between atoms: _326  and  _328
REMARK  130  A    between atoms: _328  and  _329
REMARK  131  A    between atoms: _328  and  _331
REMARK  132  A    between atoms: _331  and  _332
REMARK  133  A    between atoms: _335  and  _337
REMARK  134  A    between atoms: _337  and  _338
REMARK  135  A    between atoms: _337  and  _340
REMARK  136  A    between atoms: _340  and  _341
REMARK  137  A    between atoms: _347  and  _349
REMARK  138  A    between atoms: _349  and  _350
REMARK  139  A    between atoms: _349  and  _352
REMARK  140  A    between atoms: _352  and  _353
REMARK  141  A    between atoms: _353  and  _354
REMARK  142  A    between atoms: _357  and  _359
REMARK  143  A    between atoms: _359  and  _360
REMARK  144  A    between atoms: _362  and  _364
REMARK  145  A    between atoms: _364  and  _365
REMARK  146  A    between atoms: _367  and  _369
REMARK  147  A    between atoms: _369  and  _370
REMARK  148  A    between atoms: _372  and  _374
REMARK  149  A    between atoms: _374  and  _375
REMARK  150  A    between atoms: _374  and  _377
REMARK  151  A    between atoms: _377  and  _378
REMARK  152  A    between atoms: _378  and  _379
REMARK  153  A    between atoms: _381  and  _383
REMARK  154  A    between atoms: _383  and  _384
REMARK  155  A    between atoms: _383  and  _386
REMARK  156  A    between atoms: _386  and  _387
REMARK  157  A    between atoms: _387  and  _388
REMARK  158  A    between atoms: _390  and  _392
REMARK  159  A    between atoms: _392  and  _393
REMARK  160  A    between atoms: _392  and  _395
REMARK  161  A    between atoms: _395  and  _396
REMARK  162  A    between atoms: _402  and  _404
REMARK  163  A    between atoms: _404  and  _405
REMARK  164  A    between atoms: _404  and  _407
REMARK  165  A    between atoms: _407  and  _408
REMARK  166  A    between atoms: _411  and  _413
REMARK  167  A    between atoms: _413  and  _414
REMARK  168  A    between atoms: _413  and  _416
REMARK  169  A    between atoms: _416  and  _417
REMARK  170  A    between atoms: _419  and  _421
REMARK  171  A    between atoms: _421  and  _422
REMARK  172  A    between atoms: _421  and  _424
REMARK  173  A    between atoms: _424  and  _425
REMARK  174  A    between atoms: _428  and  _430
REMARK  175  A    between atoms: _430  and  _431
REMARK  176  A    between atoms: _430  and  _433
REMARK  177  A    between atoms: _436  and  _438
REMARK  178  A    between atoms: _438  and  _439
REMARK  179  A    between atoms: _438  and  _441
REMARK  180  A    between atoms: _441  and  _442
REMARK  181  A    between atoms: _447  and  _449
REMARK  182  A    between atoms: _449  and  _450
REMARK  183  A    between atoms: _449  and  _452
REMARK  184  A    between atoms: _452  and  _453
REMARK  185  A    between atoms: _453  and  _454
REMARK  186  A    between atoms: _457  and  _459
REMARK  187  A    between atoms: _459  and  _460
REMARK  188  A    between atoms: _463  and  _465
REMARK  189  A    between atoms: _465  and  _466
REMARK  190  A    between atoms: _465  and  _468
REMARK  191  A    between atoms: _468  and  _469
REMARK  192  A    between atoms: _475  and  _477
REMARK  193  A    between atoms: _477  and  _478
REMARK  194  A    between atoms: _477  and  _480
REMARK  195  A    between atoms: _480  and  _481
REMARK  196  A    between atoms: _487  and  _489
REMARK  197  A    between atoms: _489  and  _490
REMARK  198  A    between atoms: _489  and  _492
REMARK  199  A    between atoms: _492  and  _493
REMARK  200  A    between atoms: _496  and  _498
REMARK  201  A    between atoms: _498  and  _499
REMARK  202  A    between atoms: _498  and  _501
REMARK  203  A    between atoms: _504  and  _506
REMARK  204  A    between atoms: _506  and  _507
REMARK  205  A    between atoms: _506  and  _509
REMARK  206  A    between atoms: _511  and  _513
REMARK  207  A    between atoms: _513  and  _514
REMARK  208  A    between atoms: _513  and  _516
REMARK  209  A    between atoms: _516  and  _517
REMARK  210  A    between atoms: _522  and  _524
REMARK  211  A    between atoms: _524  and  _525
REMARK  212  A    between atoms: _524  and  _527
REMARK  213  A    between atoms: _527  and  _528
REMARK  214  A    between atoms: _531  and  _533
REMARK  215  A    between atoms: _533  and  _534
REMARK  216  A    between atoms: _533  and  _536
REMARK  217  A    between atoms: _536  and  _537
REMARK  218  A    between atoms: _542  and  _544
REMARK  219  A    between atoms: _544  and  _545
REMARK  220  A    between atoms: _547  and  _549
REMARK  221  A    between atoms: _549  and  _550
REMARK  222  A    between atoms: _549  and  _552
REMARK  223  A    between atoms: _552  and  _553
REMARK  224  A    between atoms: _553  and  _554
REMARK  225  A    between atoms: _554  and  _555
REMARK  226  A    between atoms: _555  and  _556
REMARK  227  A    between atoms: _560  and  _562
REMARK  228  A    between atoms: _562  and  _563
REMARK  229  A    between atoms: _562  and  _565
REMARK  230  A    between atoms: _565  and  _566
REMARK  231  A    between atoms: _571  and  _572
REMARK  232  A    between atoms: _574  and  _576
REMARK  233  A    between atoms: _576  and  _577
REMARK  234  A    between atoms: _576  and  _579
REMARK  235  A    between atoms: _579  and  _580
REMARK                            x       y       z     vdW  Elec       q    Type
REMARK                         _______ _______ _______ _____ _____    ______ ____
ROOT
ATOM      1  CG  TYR A   1      21.894  25.776  -2.889  0.00  0.00    -0.020 A 
ATOM      2  CD2 TYR A   1      22.122  26.097  -1.554  0.00  0.00    -0.001 A 
ATOM      3  CE2 TYR A   1      21.568  27.247  -0.988  0.00  0.00    +0.036 A 
ATOM      4  CZ  TYR A   1      20.781  28.078  -1.775  0.00  0.00    +0.134 A 
ATOM      5  CE1 TYR A   1      20.541  27.771  -3.101  0.00  0.00    +0.036 A 
ATOM      6  CD1 TYR A   1      21.096  26.626  -3.649  0.00  0.00    -0.001 A 
ENDROOT
BRANCH   4   7
ATOM      7  OH  TYR A   1      20.240  29.230  -1.250  0.00  0.00    -0.506 OA
ATOM      8  HH  TYR A   1      19.651  28.999  -0.489  0.00  0.00    +0.292 HD
ENDBRANCH   4   7
BRANCH   1   9
ATOM      9  CB  TYR A   1      22.522  24.555  -3.513  0.00  0.00    +0.051 C 
BRANCH   9  10
ATOM     10  CA  TYR A   1      21.606  23.332  -3.586  0.00  0.00    +0.137 C 
BRANCH  10  11
ATOM     11  N   TYR A   1      22.360  22.203  -4.109  0.00  0.00    -0.239 NA
ATOM     12  H   TYR A   1      23.329  22.352  -4.457  0.00  0.00    +0.142 HD
ENDBRANCH  10  11
BRANCH  10  13
ATOM     13  C   TYR A   1      20.399  23.583  -4.483  0.00  0.00    +0.224 C 
ATOM     14  O   TYR A   1      19.299  23.867  -3.996  0.00  0.00    -0.287 OA
ENDBRANCH  10  13
ENDBRANCH   9  10
ENDBRANCH   1   9
TORSDOF 5
REMARK  Name = ../refined-set-2016/1nq7/1nq7_pocket.pdb
REMARK  235 active torsions:
REMARK  status: ('A' for Active; 'I' for Inactive)
REMARK    1  A    between atoms: _1  and  _3
REMARK    2  A    between atoms: _3  and  _4
REMARK    3  A    between atoms: _3  and  _6
REMARK    4  A    between atoms: _6  and  _7
REMARK    5  A    between atoms: _12  and  _14
REMARK    6  A    between atoms: _14  and  _15
REMARK    7  A    between atoms: _14  and  _17
REMARK    8  A    between atoms: _17  and  _18
REMARK    9  A    between atoms: _21  and  _23
REMARK   10  A    between atoms: _23  and  _24
REMARK   11  A    between atoms: _23  and  _26
REMARK   12  A    between atoms: _28  and  _30
REMARK   13  A    between atoms: _30  and  _31
REMARK   14  A    between atoms: _30  and  _33
REMARK   15  A    between atoms: _33  and  _34
REMARK   16  A    between atoms: _34  and  _35
REMARK   17  A    between atoms: _40  and  _42
REMARK   18  A    between atoms: _42  and  _43
REMARK   19  A    between atoms: _42  and  _45
REMARK   20  A    between atoms: _45  and  _46
REMARK   21  A    between atoms: _51  and  _52
REMARK   22  A    between atoms: _54  and  _56
REMARK   23  A    between atoms: _56  and  _57
REMARK   24  A    between atoms: _56  and  _59
REMARK   25  A    between atoms: _59  and  _60
REMARK   26  A    between atoms: _63  and  _65
REMARK   27  A    between atoms: _65  and  _66
REMARK   28  A    between atoms: _65  and  _68
REMARK   29  A    between atoms: _68  and  _69
REMARK   30  A    between atoms: _72  and  _74
REMARK   31  A    between atoms: _74  and  _75
REMARK   32  A    between atoms: _74  and  _77
REMARK   33  A    between atoms: _77  and  _78
REMARK   34  A    between atoms: _81  and  _83
REMARK   35  A    between atoms: _83  and  _84
REMARK   36  A    between atoms: _83  and  _86
REMARK   37  A    between atoms: _86  and  _87
REMARK   38  A    between atoms: _97  and  _99
REMARK   39  A    between atoms: _99  and  _100
REMARK   40  A    between atoms: _99  and  _102
REMARK   41  A    between atoms: _102  and  _103
REMARK   42  A    between atoms: _103  and  _104
REMARK   43  A    between atoms: _109  and  _111
REMARK   44  A    between atoms: _111  and  _112
REMARK   45  A    between atoms: _111  and  _114
REMARK   46  A    between atoms: _116  and  _118
REMARK   47  A    between atoms: _118  and  _119
REMARK   48  A    between atoms: _122  and  _124
REMARK   49  A    between atoms: _124  and  _125
REMARK   50  A    between atoms: _124  and  _127
REMARK   51  A    between atoms: _127  and  _128
REMARK   52  A    between atoms: _128  and  _129
REMARK   53  A    between atoms: _134  and  _136
REMARK   54  A    between atoms: _136  and  _137
REMARK   55  A    between atoms: _136  and  _139
REMARK   56  A    between atoms: _139  and  _140
REMARK   57  A    between atoms: _143  and  _145
REMARK   58  A    between atoms: _145  and  _146
REMARK   59  A    between atoms: _145  and  _148
REMARK   60  A    between atoms: _148  and  _149
REMARK   61  A    between atoms: _154  and  _156
REMARK   62  A    between atoms: _156  and  _157
REMARK   63  A    between atoms: _160  and  _162
REMARK   64  A    between atoms: _162  and  _163
REMARK   65  A    between atoms: _162  and  _165
REMARK   66  A    between atoms: _165  and  _166
REMARK   67  A    between atoms: _169  and  _171
REMARK   68  A    between atoms: _171  and  _172
REMARK   69  A    between atoms: _171  and  _174
REMARK   70  A    between atoms: _174  and  _175
REMARK   71  A    between atoms: _180  and  _181
REMARK   72  A    between atoms: _183  and  _185
REMARK   73  A    between atoms: _185  and  _186
REMARK   74  A    between atoms: _185  and  _188
REMARK   75  A    between atoms: _191  and  _193
REMARK   76  A    between atoms: _193  and  _194
REMARK   77  A    between atoms: _193  and  _196
REMARK   78  A    between atoms: _198  and  _200
REMARK   79  A    between atoms: _200  and  _201
REMARK   80  A    between atoms: _200  and  _203
REMARK   81  A    between atoms: _203  and  _204
REMARK   82  A    between atoms: _207  and  _209
REMARK   83  A    between atoms: _209  and  _210
REMARK   84  A    between atoms: _209  and  _212
REMARK   85  A    between atoms: _212  and  _213
REMARK   86  A    between atoms: _213  and  _214
REMARK   87  A    between atoms: _217  and  _219
REMARK   88  A    between atoms: _219  and  _220
REMARK   89  A    between atoms: _219  and  _222
REMARK   90  A    between atoms: _225  and  _227
REMARK   91  A    between atoms: _227  and  _228
REMARK   92  A    between atoms: _227  and  _230
REMARK   93  A    between atoms: _233  and  _235
REMARK   94  A    between atoms: _235  and  _236
REMARK   95  A    between atoms: _235  and  _238
REMARK   96  A    between atoms: _238  and  _239
REMARK   97  A    between atoms: _242  and  _244
REMARK   98  A    between atoms: _244  and  _245
REMARK   99  A    between atoms: _244  and  _247
REMARK  100  A    between atoms: _250  and  _252
REMARK  101  A    between atoms: _252  and  _253
REMARK  102  A    between atoms: _252  and  _255
REMARK  103  A    between atoms: _255  and  _256
REMARK  104  A    between atoms: _256  and  _257
REMARK  105  A    between atoms: _257  and  _258
REMARK  106  A    between atoms: _267  and  _269
REMARK  107  A    between atoms: _269  and  _270
REMARK  108  A    between atoms: _269  and  _272
REMARK  109  A    between atoms: _272  and  _273
REMARK  110  A    between atoms: _273  and  _274
REMARK  111  A    between atoms: _276  and  _278
REMARK  112  A    between atoms: _278  and  _279
REMARK  113  A    between atoms: _278  and  _281
REMARK  114  A    between atoms: _283  and  _285
REMARK  115  A    between atoms: _285  and  _286
REMARK  116  A    between atoms: _285  and  _288
REMARK  117  A    between atoms: _288  and  _289
REMARK  118  A    between atoms: _289  and  _290
REMARK  119  A    between atoms: _290  and  _291
REMARK  120  A    between atoms: _300  and  _302
REMARK  121  A    between atoms: _302  and  _303
REMARK  122  A    between atoms: _306  and  _308
REMARK  123  A    between atoms: _308  and  _309
REMARK  124  A    between atoms: _308  and  _311
REMARK  125  A    between atoms: _311  and  _312
REMARK  126  A    between atoms: _318  and  _320
REMARK  127  A    between atoms: _320  and  _321
REMARK  128  A    between atoms: _320  and  _323
REMARK  129  A    between atoms: _326  and  _328
REMARK  130  A    between atoms: _328  and  _329
REMARK  131  A    between atoms: _328  and  _331
REMARK  132  A    between atoms: _331  and  _332
REMARK  133  A    between atoms: _335  and  _337
REMARK  134  A    between atoms: _337  and  _338
REMARK  135  A    between atoms: _337  and  _340
REMARK  136  A    between atoms: _340  and  _341
REMARK  137  A    between atoms: _347  and  _349
REMARK  138  A    between atoms: _349  and  _350
REMARK  139  A    between atoms: _349  and  _352
REMARK  140  A    between atoms: _352  and  _353
REMARK  141  A    between atoms: _353  and  _354
REMARK  142  A    between atoms: _357  and  _359
REMARK  143  A    between atoms: _359  and  _360
REMARK  144  A    between atoms: _362  and  _364
REMARK  145  A    between atoms: _364  and  _365
REMARK  146  A    between atoms: _367  and  _369
REMARK  147  A    between atoms: _369  and  _370
REMARK  148  A    between atoms: _372  and  _374
REMARK  149  A    between atoms: _374  and  _375
REMARK  150  A    between atoms: _374  and  _377
REMARK  151  A    between atoms: _377  and  _378
REMARK  152  A    between atoms: _378  and  _379
REMARK  153  A    between atoms: _381  and  _383
REMARK  154  A    between atoms: _383  and  _384
REMARK  155  A    between atoms: _383  and  _386
REMARK  156  A    between atoms: _386  and  _387
REMARK  157  A    between atoms: _387  and  _388
REMARK  158  A    between atoms: _390  and  _392
REMARK  159  A    between atoms: _392  and  _393
REMARK  160  A    between atoms: _392  and  _395
REMARK  161  A    between atoms: _395  and  _396
REMARK  162  A    between atoms: _402  and  _404
REMARK  163  A    between atoms: _404  and  _405
REMARK  164  A    between atoms: _404  and  _407
REMARK  165  A    between atoms: _407  and  _408
REMARK  166  A    between atoms: _411  and  _413
REMARK  167  A    between atoms: _413  and  _414
REMARK  168  A    between atoms: _413  and  _416
REMARK  169  A    between atoms: _416  and  _417
REMARK  170  A    between atoms: _419  and  _421
REMARK  171  A    between atoms: _421  and  _422
REMARK  172  A    between atoms: _421  and  _424
REMARK  173  A    between atoms: _424  and  _425
REMARK  174  A    between atoms: _428  and  _430
REMARK  175  A    between atoms: _430  and  _431
REMARK  176  A    between atoms: _430  and  _433
REMARK  177  A    between atoms: _436  and  _438
REMARK  178  A    between atoms: _438  and  _439
REMARK  179  A    between atoms: _438  and  _441
REMARK  180  A    between atoms: _441  and  _442
REMARK  181  A    between atoms: _447  and  _449
REMARK  182  A    between atoms: _449  and  _450
REMARK  183  A    between atoms: _449  and  _452
REMARK  184  A    between atoms: _452  and  _453
REMARK  185  A    between atoms: _453  and  _454
REMARK  186  A    between atoms: _457  and  _459
REMARK  187  A    between atoms: _459  and  _460
REMARK  188  A    between atoms: _463  and  _465
REMARK  189  A    between atoms: _465  and  _466
REMARK  190  A    between atoms: _465  and  _468
REMARK  191  A    between atoms: _468  and  _469
REMARK  192  A    between atoms: _475  and  _477
REMARK  193  A    between atoms: _477  and  _478
REMARK  194  A    between atoms: _477  and  _480
REMARK  195  A    between atoms: _480  and  _481
REMARK  196  A    between atoms: _487  and  _489
REMARK  197  A    between atoms: _489  and  _490
REMARK  198  A    between atoms: _489  and  _492
REMARK  199  A    between atoms: _492  and  _493
REMARK  200  A    between atoms: _496  and  _498
REMARK  201  A    between atoms: _498  and  _499
REMARK  202  A    between atoms: _498  and  _501
REMARK  203  A    between atoms: _504  and  _506
REMARK  204  A    between atoms: _506  and  _507
REMARK  205  A    between atoms: _506  and  _509
REMARK  206  A    between atoms: _511  and  _513
REMARK  207  A    between atoms: _513  and  _514
REMARK  208  A    between atoms: _513  and  _516
REMARK  209  A    between atoms: _516  and  _517
REMARK  210  A    between atoms: _522  and  _524
REMARK  211  A    between atoms: _524  and  _525
REMARK  212  A    between atoms: _524  and  _527
REMARK  213  A    between atoms: _527  and  _528
REMARK  214  A    between atoms: _531  and  _533
REMARK  215  A    between atoms: _533  and  _534
REMARK  216  A    between atoms: _533  and  _536
REMARK  217  A    between atoms: _536  and  _537
REMARK  218  A    between atoms: _542  and  _544
REMARK  219  A    between atoms: _544  and  _545
REMARK  220  A    between atoms: _547  and  _549
REMARK  221  A    between atoms: _549  and  _550
REMARK  222  A    between atoms: _549  and  _552
REMARK  223  A    between atoms: _552  and  _553
REMARK  224  A    between atoms: _553  and  _554
REMARK  225  A    between atoms: _554  and  _555
REMARK  226  A    between atoms: _555  and  _556
REMARK  227  A    between atoms: _560  and  _562
REMARK  228  A    between atoms: _562  and  _563
REMARK  229  A    between atoms: _562  and  _565
REMARK  230  A    between atoms: _565  and  _566
REMARK  231  A    between atoms: _571  and  _572
REMARK  232  A    between atoms: _574  and  _576
REMARK  233  A    between atoms: _576  and  _577
REMARK  234  A    between atoms: _576  and  _579
REMARK  235  A    between atoms: _579  and  _580
REMARK                            x       y       z     vdW  Elec       q    Type
REMARK                         _______ _______ _______ _____ _____    ______ ____
ROOT
ATOM      1  CB  PHE A   1      16.453  25.387  -2.274  0.00  0.00    +0.051 C 
ENDROOT
BRANCH   1   2
ATOM      2  CG  PHE A   1      17.165  24.877  -1.054  0.00  0.00    -0.020 A 
ATOM      3  CD2 PHE A   1      16.445  24.437   0.052  0.00  0.00    -0.004 A 
ATOM      4  CE2 PHE A   1      17.094  23.939   1.176  0.00  0.00    -0.000 A 
ATOM      5  CZ  PHE A   1      18.488  23.886   1.207  0.00  0.00    -0.000 A 
ATOM      6  CE1 PHE A   1      19.217  24.324   0.110  0.00  0.00    -0.000 A 
ATOM      7  CD1 PHE A   1      18.557  24.821  -1.013  0.00  0.00    -0.004 A 
ENDBRANCH   1   2
BRANCH   1   8
ATOM      8  CA  PHE A   1      15.658  24.310  -3.010  0.00  0.00    +0.137 C 
BRANCH   8   9
ATOM      9  N   PHE A   1      16.475  23.104  -3.104  0.00  0.00    -0.239 NA
ATOM     10  H   PHE A   1      17.364  23.127  -3.644  0.00  0.00    +0.142 HD
ENDBRANCH   8   9
BRANCH   8  11
ATOM     11  C   PHE A   1      15.176  24.859  -4.346  0.00  0.00    +0.224 C 
ATOM     12  O   PHE A   1      14.458  25.856  -4.385  0.00  0.00    -0.287 OA
ENDBRANCH   8  11
ENDBRANCH   1   8
TORSDOF 4
REMARK  Name = ../refined-set-2016/1nq7/1nq7_pocket.pdb
REMARK  235 active torsions:
REMARK  status: ('A' for Active; 'I' for Inactive)
REMARK    1  A    between atoms: _1  and  _3
REMARK    2  A    between atoms: _3  and  _4
REMARK    3  A    between atoms: _3  and  _6
REMARK    4  A    between atoms: _6  and  _7
REMARK    5  A    between atoms: _12  and  _14
REMARK    6  A    between atoms: _14  and  _15
REMARK    7  A    between atoms: _14  and  _17
REMARK    8  A    between atoms: _17  and  _18
REMARK    9  A    between atoms: _21  and  _23
REMARK   10  A    between atoms: _23  and  _24
REMARK   11  A    between atoms: _23  and  _26
REMARK   12  A    between atoms: _28  and  _30
REMARK   13  A    between atoms: _30  and  _31
REMARK   14  A    between atoms: _30  and  _33
REMARK   15  A    between atoms: _33  and  _34
REMARK   16  A    between atoms: _34  and  _35
REMARK   17  A    between atoms: _40  and  _42
REMARK   18  A    between atoms: _42  and  _43
REMARK   19  A    between atoms: _42  and  _45
REMARK   20  A    between atoms: _45  and  _46
REMARK   21  A    between atoms: _51  and  _52
REMARK   22  A    between atoms: _54  and  _56
REMARK   23  A    between atoms: _56  and  _57
REMARK   24  A    between atoms: _56  and  _59
REMARK   25  A    between atoms: _59  and  _60
REMARK   26  A    between atoms: _63  and  _65
REMARK   27  A    between atoms: _65  and  _66
REMARK   28  A    between atoms: _65  and  _68
REMARK   29  A    between atoms: _68  and  _69
REMARK   30  A    between atoms: _72  and  _74
REMARK   31  A    between atoms: _74  and  _75
REMARK   32  A    between atoms: _74  and  _77
REMARK   33  A    between atoms: _77  and  _78
REMARK   34  A    between atoms: _81  and  _83
REMARK   35  A    between atoms: _83  and  _84
REMARK   36  A    between atoms: _83  and  _86
REMARK   37  A    between atoms: _86  and  _87
REMARK   38  A    between atoms: _97  and  _99
REMARK   39  A    between atoms: _99  and  _100
REMARK   40  A    between atoms: _99  and  _102
REMARK   41  A    between atoms: _102  and  _103
REMARK   42  A    between atoms: _103  and  _104
REMARK   43  A    between atoms: _109  and  _111
REMARK   44  A    between atoms: _111  and  _112
REMARK   45  A    between atoms: _111  and  _114
REMARK   46  A    between atoms: _116  and  _118
REMARK   47  A    between atoms: _118  and  _119
REMARK   48  A    between atoms: _122  and  _124
REMARK   49  A    between atoms: _124  and  _125
REMARK   50  A    between atoms: _124  and  _127
REMARK   51  A    between atoms: _127  and  _128
REMARK   52  A    between atoms: _128  and  _129
REMARK   53  A    between atoms: _134  and  _136
REMARK   54  A    between atoms: _136  and  _137
REMARK   55  A    between atoms: _136  and  _139
REMARK   56  A    between atoms: _139  and  _140
REMARK   57  A    between atoms: _143  and  _145
REMARK   58  A    between atoms: _145  and  _146
REMARK   59  A    between atoms: _145  and  _148
REMARK   60  A    between atoms: _148  and  _149
REMARK   61  A    between atoms: _154  and  _156
REMARK   62  A    between atoms: _156  and  _157
REMARK   63  A    between atoms: _160  and  _162
REMARK   64  A    between atoms: _162  and  _163
REMARK   65  A    between atoms: _162  and  _165
REMARK   66  A    between atoms: _165  and  _166
REMARK   67  A    between atoms: _169  and  _171
REMARK   68  A    between atoms: _171  and  _172
REMARK   69  A    between atoms: _171  and  _174
REMARK   70  A    between atoms: _174  and  _175
REMARK   71  A    between atoms: _180  and  _181
REMARK   72  A    between atoms: _183  and  _185
REMARK   73  A    between atoms: _185  and  _186
REMARK   74  A    between atoms: _185  and  _188
REMARK   75  A    between atoms: _191  and  _193
REMARK   76  A    between atoms: _193  and  _194
REMARK   77  A    between atoms: _193  and  _196
REMARK   78  A    between atoms: _198  and  _200
REMARK   79  A    between atoms: _200  and  _201
REMARK   80  A    between atoms: _200  and  _203
REMARK   81  A    between atoms: _203  and  _204
REMARK   82  A    between atoms: _207  and  _209
REMARK   83  A    between atoms: _209  and  _210
REMARK   84  A    between atoms: _209  and  _212
REMARK   85  A    between atoms: _212  and  _213
REMARK   86  A    between atoms: _213  and  _214
REMARK   87  A    between atoms: _217  and  _219
REMARK   88  A    between atoms: _219  and  _220
REMARK   89  A    between atoms: _219  and  _222
REMARK   90  A    between atoms: _225  and  _227
REMARK   91  A    between atoms: _227  and  _228
REMARK   92  A    between atoms: _227  and  _230
REMARK   93  A    between atoms: _233  and  _235
REMARK   94  A    between atoms: _235  and  _236
REMARK   95  A    between atoms: _235  and  _238
REMARK   96  A    between atoms: _238  and  _239
REMARK   97  A    between atoms: _242  and  _244
REMARK   98  A    between atoms: _244  and  _245
REMARK   99  A    between atoms: _244  and  _247
REMARK  100  A    between atoms: _250  and  _252
REMARK  101  A    between atoms: _252  and  _253
REMARK  102  A    between atoms: _252  and  _255
REMARK  103  A    between atoms: _255  and  _256
REMARK  104  A    between atoms: _256  and  _257
REMARK  105  A    between atoms: _257  and  _258
REMARK  106  A    between atoms: _267  and  _269
REMARK  107  A    between atoms: _269  and  _270
REMARK  108  A    between atoms: _269  and  _272
REMARK  109  A    between atoms: _272  and  _273
REMARK  110  A    between atoms: _273  and  _274
REMARK  111  A    between atoms: _276  and  _278
REMARK  112  A    between atoms: _278  and  _279
REMARK  113  A    between atoms: _278  and  _281
REMARK  114  A    between atoms: _283  and  _285
REMARK  115  A    between atoms: _285  and  _286
REMARK  116  A    between atoms: _285  and  _288
REMARK  117  A    between atoms: _288  and  _289
REMARK  118  A    between atoms: _289  and  _290
REMARK  119  A    between atoms: _290  and  _291
REMARK  120  A    between atoms: _300  and  _302
REMARK  121  A    between atoms: _302  and  _303
REMARK  122  A    between atoms: _306  and  _308
REMARK  123  A    between atoms: _308  and  _309
REMARK  124  A    between atoms: _308  and  _311
REMARK  125  A    between atoms: _311  and  _312
REMARK  126  A    between atoms: _318  and  _320
REMARK  127  A    between atoms: _320  and  _321
REMARK  128  A    between atoms: _320  and  _323
REMARK  129  A    between atoms: _326  and  _328
REMARK  130  A    between atoms: _328  and  _329
REMARK  131  A    between atoms: _328  and  _331
REMARK  132  A    between atoms: _331  and  _332
REMARK  133  A    between atoms: _335  and  _337
REMARK  134  A    between atoms: _337  and  _338
REMARK  135  A    between atoms: _337  and  _340
REMARK  136  A    between atoms: _340  and  _341
REMARK  137  A    between atoms: _347  and  _349
REMARK  138  A    between atoms: _349  and  _350
REMARK  139  A    between atoms: _349  and  _352
REMARK  140  A    between atoms: _352  and  _353
REMARK  141  A    between atoms: _353  and  _354
REMARK  142  A    between atoms: _357  and  _359
REMARK  143  A    between atoms: _359  and  _360
REMARK  144  A    between atoms: _362  and  _364
REMARK  145  A    between atoms: _364  and  _365
REMARK  146  A    between atoms: _367  and  _369
REMARK  147  A    between atoms: _369  and  _370
REMARK  148  A    between atoms: _372  and  _374
REMARK  149  A    between atoms: _374  and  _375
REMARK  150  A    between atoms: _374  and  _377
REMARK  151  A    between atoms: _377  and  _378
REMARK  152  A    between atoms: _378  and  _379
REMARK  153  A    between atoms: _381  and  _383
REMARK  154  A    between atoms: _383  and  _384
REMARK  155  A    between atoms: _383  and  _386
REMARK  156  A    between atoms: _386  and  _387
REMARK  157  A    between atoms: _387  and  _388
REMARK  158  A    between atoms: _390  and  _392
REMARK  159  A    between atoms: _392  and  _393
REMARK  160  A    between atoms: _392  and  _395
REMARK  161  A    between atoms: _395  and  _396
REMARK  162  A    between atoms: _402  and  _404
REMARK  163  A    between atoms: _404  and  _405
REMARK  164  A    between atoms: _404  and  _407
REMARK  165  A    between atoms: _407  and  _408
REMARK  166  A    between atoms: _411  and  _413
REMARK  167  A    between atoms: _413  and  _414
REMARK  168  A    between atoms: _413  and  _416
REMARK  169  A    between atoms: _416  and  _417
REMARK  170  A    between atoms: _419  and  _421
REMARK  171  A    between atoms: _421  and  _422
REMARK  172  A    between atoms: _421  and  _424
REMARK  173  A    between atoms: _424  and  _425
REMARK  174  A    between atoms: _428  and  _430
REMARK  175  A    between atoms: _430  and  _431
REMARK  176  A    between atoms: _430  and  _433
REMARK  177  A    between atoms: _436  and  _438
REMARK  178  A    between atoms: _438  and  _439
REMARK  179  A    between atoms: _438  and  _441
REMARK  180  A    between atoms: _441  and  _442
REMARK  181  A    between atoms: _447  and  _449
REMARK  182  A    between atoms: _449  and  _450
REMARK  183  A    between atoms: _449  and  _452
REMARK  184  A    between atoms: _452  and  _453
REMARK  185  A    between atoms: _453  and  _454
REMARK  186  A    between atoms: _457  and  _459
REMARK  187  A    between atoms: _459  and  _460
REMARK  188  A    between atoms: _463  and  _465
REMARK  189  A    between atoms: _465  and  _466
REMARK  190  A    between atoms: _465  and  _468
REMARK  191  A    between atoms: _468  and  _469
REMARK  192  A    between atoms: _475  and  _477
REMARK  193  A    between atoms: _477  and  _478
REMARK  194  A    between atoms: _477  and  _480
REMARK  195  A    between atoms: _480  and  _481
REMARK  196  A    between atoms: _487  and  _489
REMARK  197  A    between atoms: _489  and  _490
REMARK  198  A    between atoms: _489  and  _492
REMARK  199  A    between atoms: _492  and  _493
REMARK  200  A    between atoms: _496  and  _498
REMARK  201  A    between atoms: _498  and  _499
REMARK  202  A    between atoms: _498  and  _501
REMARK  203  A    between atoms: _504  and  _506
REMARK  204  A    between atoms: _506  and  _507
REMARK  205  A    between atoms: _506  and  _509
REMARK  206  A    between atoms: _511  and  _513
REMARK  207  A    between atoms: _513  and  _514
REMARK  208  A    between atoms: _513  and  _516
REMARK  209  A    between atoms: _516  and  _517
REMARK  210  A    between atoms: _522  and  _524
REMARK  211  A    between atoms: _524  and  _525
REMARK  212  A    between atoms: _524  and  _527
REMARK  213  A    between atoms: _527  and  _528
REMARK  214  A    between atoms: _531  and  _533
REMARK  215  A    between atoms: _533  and  _534
REMARK  216  A    between atoms: _533  and  _536
REMARK  217  A    between atoms: _536  and  _537
REMARK  218  A    between atoms: _542  and  _544
REMARK  219  A    between atoms: _544  and  _545
REMARK  220  A    between atoms: _547  and  _549
REMARK  221  A    between atoms: _549  and  _550
REMARK  222  A    between atoms: _549  and  _552
REMARK  223  A    between atoms: _552  and  _553
REMARK  224  A    between atoms: _553  and  _554
REMARK  225  A    between atoms: _554  and  _555
REMARK  226  A    between atoms: _555  and  _556
REMARK  227  A    between atoms: _560  and  _562
REMARK  228  A    between atoms: _562  and  _563
REMARK  229  A    between atoms: _562  and  _565
REMARK  230  A    between atoms: _565  and  _566
REMARK  231  A    between atoms: _571  and  _572
REMARK  232  A    between atoms: _574  and  _576
REMARK  233  A    between atoms: _576  and  _577
REMARK  234  A    between atoms: _576  and  _579
REMARK  235  A    between atoms: _579  and  _580
REMARK                            x       y       z     vdW  Elec       q    Type
REMARK                         _______ _______ _______ _____ _____    ______ ____
ROOT
ATOM      1  O   HOH     1      24.917  17.489  14.695  0.00  0.00    +0.000 OA
ENDROOT
TORSDOF 0
REMARK  Name = ../refined-set-2016/1nq7/1nq7_pocket.pdb
REMARK  235 active torsions:
REMARK  status: ('A' for Active; 'I' for Inactive)
REMARK    1  A    between atoms: _1  and  _3
REMARK    2  A    between atoms: _3  and  _4
REMARK    3  A    between atoms: _3  and  _6
REMARK    4  A    between atoms: _6  and  _7
REMARK    5  A    between atoms: _12  and  _14
REMARK    6  A    between atoms: _14  and  _15
REMARK    7  A    between atoms: _14  and  _17
REMARK    8  A    between atoms: _17  and  _18
REMARK    9  A    between atoms: _21  and  _23
REMARK   10  A    between atoms: _23  and  _24
REMARK   11  A    between atoms: _23  and  _26
REMARK   12  A    between atoms: _28  and  _30
REMARK   13  A    between atoms: _30  and  _31
REMARK   14  A    between atoms: _30  and  _33
REMARK   15  A    between atoms: _33  and  _34
REMARK   16  A    between atoms: _34  and  _35
REMARK   17  A    between atoms: _40  and  _42
REMARK   18  A    between atoms: _42  and  _43
REMARK   19  A    between atoms: _42  and  _45
REMARK   20  A    between atoms: _45  and  _46
REMARK   21  A    between atoms: _51  and  _52
REMARK   22  A    between atoms: _54  and  _56
REMARK   23  A    between atoms: _56  and  _57
REMARK   24  A    between atoms: _56  and  _59
REMARK   25  A    between atoms: _59  and  _60
REMARK   26  A    between atoms: _63  and  _65
REMARK   27  A    between atoms: _65  and  _66
REMARK   28  A    between atoms: _65  and  _68
REMARK   29  A    between atoms: _68  and  _69
REMARK   30  A    between atoms: _72  and  _74
REMARK   31  A    between atoms: _74  and  _75
REMARK   32  A    between atoms: _74  and  _77
REMARK   33  A    between atoms: _77  and  _78
REMARK   34  A    between atoms: _81  and  _83
REMARK   35  A    between atoms: _83  and  _84
REMARK   36  A    between atoms: _83  and  _86
REMARK   37  A    between atoms: _86  and  _87
REMARK   38  A    between atoms: _97  and  _99
REMARK   39  A    between atoms: _99  and  _100
REMARK   40  A    between atoms: _99  and  _102
REMARK   41  A    between atoms: _102  and  _103
REMARK   42  A    between atoms: _103  and  _104
REMARK   43  A    between atoms: _109  and  _111
REMARK   44  A    between atoms: _111  and  _112
REMARK   45  A    between atoms: _111  and  _114
REMARK   46  A    between atoms: _116  and  _118
REMARK   47  A    between atoms: _118  and  _119
REMARK   48  A    between atoms: _122  and  _124
REMARK   49  A    between atoms: _124  and  _125
REMARK   50  A    between atoms: _124  and  _127
REMARK   51  A    between atoms: _127  and  _128
REMARK   52  A    between atoms: _128  and  _129
REMARK   53  A    between atoms: _134  and  _136
REMARK   54  A    between atoms: _136  and  _137
REMARK   55  A    between atoms: _136  and  _139
REMARK   56  A    between atoms: _139  and  _140
REMARK   57  A    between atoms: _143  and  _145
REMARK   58  A    between atoms: _145  and  _146
REMARK   59  A    between atoms: _145  and  _148
REMARK   60  A    between atoms: _148  and  _149
REMARK   61  A    between atoms: _154  and  _156
REMARK   62  A    between atoms: _156  and  _157
REMARK   63  A    between atoms: _160  and  _162
REMARK   64  A    between atoms: _162  and  _163
REMARK   65  A    between atoms: _162  and  _165
REMARK   66  A    between atoms: _165  and  _166
REMARK   67  A    between atoms: _169  and  _171
REMARK   68  A    between atoms: _171  and  _172
REMARK   69  A    between atoms: _171  and  _174
REMARK   70  A    between atoms: _174  and  _175
REMARK   71  A    between atoms: _180  and  _181
REMARK   72  A    between atoms: _183  and  _185
REMARK   73  A    between atoms: _185  and  _186
REMARK   74  A    between atoms: _185  and  _188
REMARK   75  A    between atoms: _191  and  _193
REMARK   76  A    between atoms: _193  and  _194
REMARK   77  A    between atoms: _193  and  _196
REMARK   78  A    between atoms: _198  and  _200
REMARK   79  A    between atoms: _200  and  _201
REMARK   80  A    between atoms: _200  and  _203
REMARK   81  A    between atoms: _203  and  _204
REMARK   82  A    between atoms: _207  and  _209
REMARK   83  A    between atoms: _209  and  _210
REMARK   84  A    between atoms: _209  and  _212
REMARK   85  A    between atoms: _212  and  _213
REMARK   86  A    between atoms: _213  and  _214
REMARK   87  A    between atoms: _217  and  _219
REMARK   88  A    between atoms: _219  and  _220
REMARK   89  A    between atoms: _219  and  _222
REMARK   90  A    between atoms: _225  and  _227
REMARK   91  A    between atoms: _227  and  _228
REMARK   92  A    between atoms: _227  and  _230
REMARK   93  A    between atoms: _233  and  _235
REMARK   94  A    between atoms: _235  and  _236
REMARK   95  A    between atoms: _235  and  _238
REMARK   96  A    between atoms: _238  and  _239
REMARK   97  A    between atoms: _242  and  _244
REMARK   98  A    between atoms: _244  and  _245
REMARK   99  A    between atoms: _244  and  _247
REMARK  100  A    between atoms: _250  and  _252
REMARK  101  A    between atoms: _252  and  _253
REMARK  102  A    between atoms: _252  and  _255
REMARK  103  A    between atoms: _255  and  _256
REMARK  104  A    between atoms: _256  and  _257
REMARK  105  A    between atoms: _257  and  _258
REMARK  106  A    between atoms: _267  and  _269
REMARK  107  A    between atoms: _269  and  _270
REMARK  108  A    between atoms: _269  and  _272
REMARK  109  A    between atoms: _272  and  _273
REMARK  110  A    between atoms: _273  and  _274
REMARK  111  A    between atoms: _276  and  _278
REMARK  112  A    between atoms: _278  and  _279
REMARK  113  A    between atoms: _278  and  _281
REMARK  114  A    between atoms: _283  and  _285
REMARK  115  A    between atoms: _285  and  _286
REMARK  116  A    between atoms: _285  and  _288
REMARK  117  A    between atoms: _288  and  _289
REMARK  118  A    between atoms: _289  and  _290
REMARK  119  A    between atoms: _290  and  _291
REMARK  120  A    between atoms: _300  and  _302
REMARK  121  A    between atoms: _302  and  _303
REMARK  122  A    between atoms: _306  and  _308
REMARK  123  A    between atoms: _308  and  _309
REMARK  124  A    between atoms: _308  and  _311
REMARK  125  A    between atoms: _311  and  _312
REMARK  126  A    between atoms: _318  and  _320
REMARK  127  A    between atoms: _320  and  _321
REMARK  128  A    between atoms: _320  and  _323
REMARK  129  A    between atoms: _326  and  _328
REMARK  130  A    between atoms: _328  and  _329
REMARK  131  A    between atoms: _328  and  _331
REMARK  132  A    between atoms: _331  and  _332
REMARK  133  A    between atoms: _335  and  _337
REMARK  134  A    between atoms: _337  and  _338
REMARK  135  A    between atoms: _337  and  _340
REMARK  136  A    between atoms: _340  and  _341
REMARK  137  A    between atoms: _347  and  _349
REMARK  138  A    between atoms: _349  and  _350
REMARK  139  A    between atoms: _349  and  _352
REMARK  140  A    between atoms: _352  and  _353
REMARK  141  A    between atoms: _353  and  _354
REMARK  142  A    between atoms: _357  and  _359
REMARK  143  A    between atoms: _359  and  _360
REMARK  144  A    between atoms: _362  and  _364
REMARK  145  A    between atoms: _364  and  _365
REMARK  146  A    between atoms: _367  and  _369
REMARK  147  A    between atoms: _369  and  _370
REMARK  148  A    between atoms: _372  and  _374
REMARK  149  A    between atoms: _374  and  _375
REMARK  150  A    between atoms: _374  and  _377
REMARK  151  A    between atoms: _377  and  _378
REMARK  152  A    between atoms: _378  and  _379
REMARK  153  A    between atoms: _381  and  _383
REMARK  154  A    between atoms: _383  and  _384
REMARK  155  A    between atoms: _383  and  _386
REMARK  156  A    between atoms: _386  and  _387
REMARK  157  A    between atoms: _387  and  _388
REMARK  158  A    between atoms: _390  and  _392
REMARK  159  A    between atoms: _392  and  _393
REMARK  160  A    between atoms: _392  and  _395
REMARK  161  A    between atoms: _395  and  _396
REMARK  162  A    between atoms: _402  and  _404
REMARK  163  A    between atoms: _404  and  _405
REMARK  164  A    between atoms: _404  and  _407
REMARK  165  A    between atoms: _407  and  _408
REMARK  166  A    between atoms: _411  and  _413
REMARK  167  A    between atoms: _413  and  _414
REMARK  168  A    between atoms: _413  and  _416
REMARK  169  A    between atoms: _416  and  _417
REMARK  170  A    between atoms: _419  and  _421
REMARK  171  A    between atoms: _421  and  _422
REMARK  172  A    between atoms: _421  and  _424
REMARK  173  A    between atoms: _424  and  _425
REMARK  174  A    between atoms: _428  and  _430
REMARK  175  A    between atoms: _430  and  _431
REMARK  176  A    between atoms: _430  and  _433
REMARK  177  A    between atoms: _436  and  _438
REMARK  178  A    between atoms: _438  and  _439
REMARK  179  A    between atoms: _438  and  _441
REMARK  180  A    between atoms: _441  and  _442
REMARK  181  A    between atoms: _447  and  _449
REMARK  182  A    between atoms: _449  and  _450
REMARK  183  A    between atoms: _449  and  _452
REMARK  184  A    between atoms: _452  and  _453
REMARK  185  A    between atoms: _453  and  _454
REMARK  186  A    between atoms: _457  and  _459
REMARK  187  A    between atoms: _459  and  _460
REMARK  188  A    between atoms: _463  and  _465
REMARK  189  A    between atoms: _465  and  _466
REMARK  190  A    between atoms: _465  and  _468
REMARK  191  A    between atoms: _468  and  _469
REMARK  192  A    between atoms: _475  and  _477
REMARK  193  A    between atoms: _477  and  _478
REMARK  194  A    between atoms: _477  and  _480
REMARK  195  A    between atoms: _480  and  _481
REMARK  196  A    between atoms: _487  and  _489
REMARK  197  A    between atoms: _489  and  _490
REMARK  198  A    between atoms: _489  and  _492
REMARK  199  A    between atoms: _492  and  _493
REMARK  200  A    between atoms: _496  and  _498
REMARK  201  A    between atoms: _498  and  _499
REMARK  202  A    between atoms: _498  and  _501
REMARK  203  A    between atoms: _504  and  _506
REMARK  204  A    between atoms: _506  and  _507
REMARK  205  A    between atoms: _506  and  _509
REMARK  206  A    between atoms: _511  and  _513
REMARK  207  A    between atoms: _513  and  _514
REMARK  208  A    between atoms: _513  and  _516
REMARK  209  A    between atoms: _516  and  _517
REMARK  210  A    between atoms: _522  and  _524
REMARK  211  A    between atoms: _524  and  _525
REMARK  212  A    between atoms: _524  and  _527
REMARK  213  A    between atoms: _527  and  _528
REMARK  214  A    between atoms: _531  and  _533
REMARK  215  A    between atoms: _533  and  _534
REMARK  216  A    between atoms: _533  and  _536
REMARK  217  A    between atoms: _536  and  _537
REMARK  218  A    between atoms: _542  and  _544
REMARK  219  A    between atoms: _544  and  _545
REMARK  220  A    between atoms: _547  and  _549
REMARK  221  A    between atoms: _549  and  _550
REMARK  222  A    between atoms: _549  and  _552
REMARK  223  A    between atoms: _552  and  _553
REMARK  224  A    between atoms: _553  and  _554
REMARK  225  A    between atoms: _554  and  _555
REMARK  226  A    between atoms: _555  and  _556
REMARK  227  A    between atoms: _560  and  _562
REMARK  228  A    between atoms: _562  and  _563
REMARK  229  A    between atoms: _562  and  _565
REMARK  230  A    between atoms: _565  and  _566
REMARK  231  A    between atoms: _571  and  _572
REMARK  232  A    between atoms: _574  and  _576
REMARK  233  A    between atoms: _576  and  _577
REMARK  234  A    between atoms: _576  and  _579
REMARK  235  A    between atoms: _579  and  _580
REMARK                            x       y       z     vdW  Elec       q    Type
REMARK                         _______ _______ _______ _____ _____    ______ ____
ROOT
ATOM      1  O   HOH     1      29.345  24.517  13.742  0.00  0.00    +0.000 OA
ENDROOT
TORSDOF 0
REMARK  Name = ../refined-set-2016/1nq7/1nq7_pocket.pdb
REMARK  235 active torsions:
REMARK  status: ('A' for Active; 'I' for Inactive)
REMARK    1  A    between atoms: _1  and  _3
REMARK    2  A    between atoms: _3  and  _4
REMARK    3  A    between atoms: _3  and  _6
REMARK    4  A    between atoms: _6  and  _7
REMARK    5  A    between atoms: _12  and  _14
REMARK    6  A    between atoms: _14  and  _15
REMARK    7  A    between atoms: _14  and  _17
REMARK    8  A    between atoms: _17  and  _18
REMARK    9  A    between atoms: _21  and  _23
REMARK   10  A    between atoms: _23  and  _24
REMARK   11  A    between atoms: _23  and  _26
REMARK   12  A    between atoms: _28  and  _30
REMARK   13  A    between atoms: _30  and  _31
REMARK   14  A    between atoms: _30  and  _33
REMARK   15  A    between atoms: _33  and  _34
REMARK   16  A    between atoms: _34  and  _35
REMARK   17  A    between atoms: _40  and  _42
REMARK   18  A    between atoms: _42  and  _43
REMARK   19  A    between atoms: _42  and  _45
REMARK   20  A    between atoms: _45  and  _46
REMARK   21  A    between atoms: _51  and  _52
REMARK   22  A    between atoms: _54  and  _56
REMARK   23  A    between atoms: _56  and  _57
REMARK   24  A    between atoms: _56  and  _59
REMARK   25  A    between atoms: _59  and  _60
REMARK   26  A    between atoms: _63  and  _65
REMARK   27  A    between atoms: _65  and  _66
REMARK   28  A    between atoms: _65  and  _68
REMARK   29  A    between atoms: _68  and  _69
REMARK   30  A    between atoms: _72  and  _74
REMARK   31  A    between atoms: _74  and  _75
REMARK   32  A    between atoms: _74  and  _77
REMARK   33  A    between atoms: _77  and  _78
REMARK   34  A    between atoms: _81  and  _83
REMARK   35  A    between atoms: _83  and  _84
REMARK   36  A    between atoms: _83  and  _86
REMARK   37  A    between atoms: _86  and  _87
REMARK   38  A    between atoms: _97  and  _99
REMARK   39  A    between atoms: _99  and  _100
REMARK   40  A    between atoms: _99  and  _102
REMARK   41  A    between atoms: _102  and  _103
REMARK   42  A    between atoms: _103  and  _104
REMARK   43  A    between atoms: _109  and  _111
REMARK   44  A    between atoms: _111  and  _112
REMARK   45  A    between atoms: _111  and  _114
REMARK   46  A    between atoms: _116  and  _118
REMARK   47  A    between atoms: _118  and  _119
REMARK   48  A    between atoms: _122  and  _124
REMARK   49  A    between atoms: _124  and  _125
REMARK   50  A    between atoms: _124  and  _127
REMARK   51  A    between atoms: _127  and  _128
REMARK   52  A    between atoms: _128  and  _129
REMARK   53  A    between atoms: _134  and  _136
REMARK   54  A    between atoms: _136  and  _137
REMARK   55  A    between atoms: _136  and  _139
REMARK   56  A    between atoms: _139  and  _140
REMARK   57  A    between atoms: _143  and  _145
REMARK   58  A    between atoms: _145  and  _146
REMARK   59  A    between atoms: _145  and  _148
REMARK   60  A    between atoms: _148  and  _149
REMARK   61  A    between atoms: _154  and  _156
REMARK   62  A    between atoms: _156  and  _157
REMARK   63  A    between atoms: _160  and  _162
REMARK   64  A    between atoms: _162  and  _163
REMARK   65  A    between atoms: _162  and  _165
REMARK   66  A    between atoms: _165  and  _166
REMARK   67  A    between atoms: _169  and  _171
REMARK   68  A    between atoms: _171  and  _172
REMARK   69  A    between atoms: _171  and  _174
REMARK   70  A    between atoms: _174  and  _175
REMARK   71  A    between atoms: _180  and  _181
REMARK   72  A    between atoms: _183  and  _185
REMARK   73  A    between atoms: _185  and  _186
REMARK   74  A    between atoms: _185  and  _188
REMARK   75  A    between atoms: _191  and  _193
REMARK   76  A    between atoms: _193  and  _194
REMARK   77  A    between atoms: _193  and  _196
REMARK   78  A    between atoms: _198  and  _200
REMARK   79  A    between atoms: _200  and  _201
REMARK   80  A    between atoms: _200  and  _203
REMARK   81  A    between atoms: _203  and  _204
REMARK   82  A    between atoms: _207  and  _209
REMARK   83  A    between atoms: _209  and  _210
REMARK   84  A    between atoms: _209  and  _212
REMARK   85  A    between atoms: _212  and  _213
REMARK   86  A    between atoms: _213  and  _214
REMARK   87  A    between atoms: _217  and  _219
REMARK   88  A    between atoms: _219  and  _220
REMARK   89  A    between atoms: _219  and  _222
REMARK   90  A    between atoms: _225  and  _227
REMARK   91  A    between atoms: _227  and  _228
REMARK   92  A    between atoms: _227  and  _230
REMARK   93  A    between atoms: _233  and  _235
REMARK   94  A    between atoms: _235  and  _236
REMARK   95  A    between atoms: _235  and  _238
REMARK   96  A    between atoms: _238  and  _239
REMARK   97  A    between atoms: _242  and  _244
REMARK   98  A    between atoms: _244  and  _245
REMARK   99  A    between atoms: _244  and  _247
REMARK  100  A    between atoms: _250  and  _252
REMARK  101  A    between atoms: _252  and  _253
REMARK  102  A    between atoms: _252  and  _255
REMARK  103  A    between atoms: _255  and  _256
REMARK  104  A    between atoms: _256  and  _257
REMARK  105  A    between atoms: _257  and  _258
REMARK  106  A    between atoms: _267  and  _269
REMARK  107  A    between atoms: _269  and  _270
REMARK  108  A    between atoms: _269  and  _272
REMARK  109  A    between atoms: _272  and  _273
REMARK  110  A    between atoms: _273  and  _274
REMARK  111  A    between atoms: _276  and  _278
REMARK  112  A    between atoms: _278  and  _279
REMARK  113  A    between atoms: _278  and  _281
REMARK  114  A    between atoms: _283  and  _285
REMARK  115  A    between atoms: _285  and  _286
REMARK  116  A    between atoms: _285  and  _288
REMARK  117  A    between atoms: _288  and  _289
REMARK  118  A    between atoms: _289  and  _290
REMARK  119  A    between atoms: _290  and  _291
REMARK  120  A    between atoms: _300  and  _302
REMARK  121  A    between atoms: _302  and  _303
REMARK  122  A    between atoms: _306  and  _308
REMARK  123  A    between atoms: _308  and  _309
REMARK  124  A    between atoms: _308  and  _311
REMARK  125  A    between atoms: _311  and  _312
REMARK  126  A    between atoms: _318  and  _320
REMARK  127  A    between atoms: _320  and  _321
REMARK  128  A    between atoms: _320  and  _323
REMARK  129  A    between atoms: _326  and  _328
REMARK  130  A    between atoms: _328  and  _329
REMARK  131  A    between atoms: _328  and  _331
REMARK  132  A    between atoms: _331  and  _332
REMARK  133  A    between atoms: _335  and  _337
REMARK  134  A    between atoms: _337  and  _338
REMARK  135  A    between atoms: _337  and  _340
REMARK  136  A    between atoms: _340  and  _341
REMARK  137  A    between atoms: _347  and  _349
REMARK  138  A    between atoms: _349  and  _350
REMARK  139  A    between atoms: _349  and  _352
REMARK  140  A    between atoms: _352  and  _353
REMARK  141  A    between atoms: _353  and  _354
REMARK  142  A    between atoms: _357  and  _359
REMARK  143  A    between atoms: _359  and  _360
REMARK  144  A    between atoms: _362  and  _364
REMARK  145  A    between atoms: _364  and  _365
REMARK  146  A    between atoms: _367  and  _369
REMARK  147  A    between atoms: _369  and  _370
REMARK  148  A    between atoms: _372  and  _374
REMARK  149  A    between atoms: _374  and  _375
REMARK  150  A    between atoms: _374  and  _377
REMARK  151  A    between atoms: _377  and  _378
REMARK  152  A    between atoms: _378  and  _379
REMARK  153  A    between atoms: _381  and  _383
REMARK  154  A    between atoms: _383  and  _384
REMARK  155  A    between atoms: _383  and  _386
REMARK  156  A    between atoms: _386  and  _387
REMARK  157  A    between atoms: _387  and  _388
REMARK  158  A    between atoms: _390  and  _392
REMARK  159  A    between atoms: _392  and  _393
REMARK  160  A    between atoms: _392  and  _395
REMARK  161  A    between atoms: _395  and  _396
REMARK  162  A    between atoms: _402  and  _404
REMARK  163  A    between atoms: _404  and  _405
REMARK  164  A    between atoms: _404  and  _407
REMARK  165  A    between atoms: _407  and  _408
REMARK  166  A    between atoms: _411  and  _413
REMARK  167  A    between atoms: _413  and  _414
REMARK  168  A    between atoms: _413  and  _416
REMARK  169  A    between atoms: _416  and  _417
REMARK  170  A    between atoms: _419  and  _421
REMARK  171  A    between atoms: _421  and  _422
REMARK  172  A    between atoms: _421  and  _424
REMARK  173  A    between atoms: _424  and  _425
REMARK  174  A    between atoms: _428  and  _430
REMARK  175  A    between atoms: _430  and  _431
REMARK  176  A    between atoms: _430  and  _433
REMARK  177  A    between atoms: _436  and  _438
REMARK  178  A    between atoms: _438  and  _439
REMARK  179  A    between atoms: _438  and  _441
REMARK  180  A    between atoms: _441  and  _442
REMARK  181  A    between atoms: _447  and  _449
REMARK  182  A    between atoms: _449  and  _450
REMARK  183  A    between atoms: _449  and  _452
REMARK  184  A    between atoms: _452  and  _453
REMARK  185  A    between atoms: _453  and  _454
REMARK  186  A    between atoms: _457  and  _459
REMARK  187  A    between atoms: _459  and  _460
REMARK  188  A    between atoms: _463  and  _465
REMARK  189  A    between atoms: _465  and  _466
REMARK  190  A    between atoms: _465  and  _468
REMARK  191  A    between atoms: _468  and  _469
REMARK  192  A    between atoms: _475  and  _477
REMARK  193  A    between atoms: _477  and  _478
REMARK  194  A    between atoms: _477  and  _480
REMARK  195  A    between atoms: _480  and  _481
REMARK  196  A    between atoms: _487  and  _489
REMARK  197  A    between atoms: _489  and  _490
REMARK  198  A    between atoms: _489  and  _492
REMARK  199  A    between atoms: _492  and  _493
REMARK  200  A    between atoms: _496  and  _498
REMARK  201  A    between atoms: _498  and  _499
REMARK  202  A    between atoms: _498  and  _501
REMARK  203  A    between atoms: _504  and  _506
REMARK  204  A    between atoms: _506  and  _507
REMARK  205  A    between atoms: _506  and  _509
REMARK  206  A    between atoms: _511  and  _513
REMARK  207  A    between atoms: _513  and  _514
REMARK  208  A    between atoms: _513  and  _516
REMARK  209  A    between atoms: _516  and  _517
REMARK  210  A    between atoms: _522  and  _524
REMARK  211  A    between atoms: _524  and  _525
REMARK  212  A    between atoms: _524  and  _527
REMARK  213  A    between atoms: _527  and  _528
REMARK  214  A    between atoms: _531  and  _533
REMARK  215  A    between atoms: _533  and  _534
REMARK  216  A    between atoms: _533  and  _536
REMARK  217  A    between atoms: _536  and  _537
REMARK  218  A    between atoms: _542  and  _544
REMARK  219  A    between atoms: _544  and  _545
REMARK  220  A    between atoms: _547  and  _549
REMARK  221  A    between atoms: _549  and  _550
REMARK  222  A    between atoms: _549  and  _552
REMARK  223  A    between atoms: _552  and  _553
REMARK  224  A    between atoms: _553  and  _554
REMARK  225  A    between atoms: _554  and  _555
REMARK  226  A    between atoms: _555  and  _556
REMARK  227  A    between atoms: _560  and  _562
REMARK  228  A    between atoms: _562  and  _563
REMARK  229  A    between atoms: _562  and  _565
REMARK  230  A    between atoms: _565  and  _566
REMARK  231  A    between atoms: _571  and  _572
REMARK  232  A    between atoms: _574  and  _576
REMARK  233  A    between atoms: _576  and  _577
REMARK  234  A    between atoms: _576  and  _579
REMARK  235  A    between atoms: _579  and  _580
REMARK                            x       y       z     vdW  Elec       q    Type
REMARK                         _______ _______ _______ _____ _____    ______ ____
ROOT
ATOM      1  O   HOH     1      26.679  20.662   9.044  0.00  0.00    +0.000 OA
ENDROOT
TORSDOF 0
REMARK  Name = ../refined-set-2016/1nq7/1nq7_pocket.pdb
REMARK  235 active torsions:
REMARK  status: ('A' for Active; 'I' for Inactive)
REMARK    1  A    between atoms: _1  and  _3
REMARK    2  A    between atoms: _3  and  _4
REMARK    3  A    between atoms: _3  and  _6
REMARK    4  A    between atoms: _6  and  _7
REMARK    5  A    between atoms: _12  and  _14
REMARK    6  A    between atoms: _14  and  _15
REMARK    7  A    between atoms: _14  and  _17
REMARK    8  A    between atoms: _17  and  _18
REMARK    9  A    between atoms: _21  and  _23
REMARK   10  A    between atoms: _23  and  _24
REMARK   11  A    between atoms: _23  and  _26
REMARK   12  A    between atoms: _28  and  _30
REMARK   13  A    between atoms: _30  and  _31
REMARK   14  A    between atoms: _30  and  _33
REMARK   15  A    between atoms: _33  and  _34
REMARK   16  A    between atoms: _34  and  _35
REMARK   17  A    between atoms: _40  and  _42
REMARK   18  A    between atoms: _42  and  _43
REMARK   19  A    between atoms: _42  and  _45
REMARK   20  A    between atoms: _45  and  _46
REMARK   21  A    between atoms: _51  and  _52
REMARK   22  A    between atoms: _54  and  _56
REMARK   23  A    between atoms: _56  and  _57
REMARK   24  A    between atoms: _56  and  _59
REMARK   25  A    between atoms: _59  and  _60
REMARK   26  A    between atoms: _63  and  _65
REMARK   27  A    between atoms: _65  and  _66
REMARK   28  A    between atoms: _65  and  _68
REMARK   29  A    between atoms: _68  and  _69
REMARK   30  A    between atoms: _72  and  _74
REMARK   31  A    between atoms: _74  and  _75
REMARK   32  A    between atoms: _74  and  _77
REMARK   33  A    between atoms: _77  and  _78
REMARK   34  A    between atoms: _81  and  _83
REMARK   35  A    between atoms: _83  and  _84
REMARK   36  A    between atoms: _83  and  _86
REMARK   37  A    between atoms: _86  and  _87
REMARK   38  A    between atoms: _97  and  _99
REMARK   39  A    between atoms: _99  and  _100
REMARK   40  A    between atoms: _99  and  _102
REMARK   41  A    between atoms: _102  and  _103
REMARK   42  A    between atoms: _103  and  _104
REMARK   43  A    between atoms: _109  and  _111
REMARK   44  A    between atoms: _111  and  _112
REMARK   45  A    between atoms: _111  and  _114
REMARK   46  A    between atoms: _116  and  _118
REMARK   47  A    between atoms: _118  and  _119
REMARK   48  A    between atoms: _122  and  _124
REMARK   49  A    between atoms: _124  and  _125
REMARK   50  A    between atoms: _124  and  _127
REMARK   51  A    between atoms: _127  and  _128
REMARK   52  A    between atoms: _128  and  _129
REMARK   53  A    between atoms: _134  and  _136
REMARK   54  A    between atoms: _136  and  _137
REMARK   55  A    between atoms: _136  and  _139
REMARK   56  A    between atoms: _139  and  _140
REMARK   57  A    between atoms: _143  and  _145
REMARK   58  A    between atoms: _145  and  _146
REMARK   59  A    between atoms: _145  and  _148
REMARK   60  A    between atoms: _148  and  _149
REMARK   61  A    between atoms: _154  and  _156
REMARK   62  A    between atoms: _156  and  _157
REMARK   63  A    between atoms: _160  and  _162
REMARK   64  A    between atoms: _162  and  _163
REMARK   65  A    between atoms: _162  and  _165
REMARK   66  A    between atoms: _165  and  _166
REMARK   67  A    between atoms: _169  and  _171
REMARK   68  A    between atoms: _171  and  _172
REMARK   69  A    between atoms: _171  and  _174
REMARK   70  A    between atoms: _174  and  _175
REMARK   71  A    between atoms: _180  and  _181
REMARK   72  A    between atoms: _183  and  _185
REMARK   73  A    between atoms: _185  and  _186
REMARK   74  A    between atoms: _185  and  _188
REMARK   75  A    between atoms: _191  and  _193
REMARK   76  A    between atoms: _193  and  _194
REMARK   77  A    between atoms: _193  and  _196
REMARK   78  A    between atoms: _198  and  _200
REMARK   79  A    between atoms: _200  and  _201
REMARK   80  A    between atoms: _200  and  _203
REMARK   81  A    between atoms: _203  and  _204
REMARK   82  A    between atoms: _207  and  _209
REMARK   83  A    between atoms: _209  and  _210
REMARK   84  A    between atoms: _209  and  _212
REMARK   85  A    between atoms: _212  and  _213
REMARK   86  A    between atoms: _213  and  _214
REMARK   87  A    between atoms: _217  and  _219
REMARK   88  A    between atoms: _219  and  _220
REMARK   89  A    between atoms: _219  and  _222
REMARK   90  A    between atoms: _225  and  _227
REMARK   91  A    between atoms: _227  and  _228
REMARK   92  A    between atoms: _227  and  _230
REMARK   93  A    between atoms: _233  and  _235
REMARK   94  A    between atoms: _235  and  _236
REMARK   95  A    between atoms: _235  and  _238
REMARK   96  A    between atoms: _238  and  _239
REMARK   97  A    between atoms: _242  and  _244
REMARK   98  A    between atoms: _244  and  _245
REMARK   99  A    between atoms: _244  and  _247
REMARK  100  A    between atoms: _250  and  _252
REMARK  101  A    between atoms: _252  and  _253
REMARK  102  A    between atoms: _252  and  _255
REMARK  103  A    between atoms: _255  and  _256
REMARK  104  A    between atoms: _256  and  _257
REMARK  105  A    between atoms: _257  and  _258
REMARK  106  A    between atoms: _267  and  _269
REMARK  107  A    between atoms: _269  and  _270
REMARK  108  A    between atoms: _269  and  _272
REMARK  109  A    between atoms: _272  and  _273
REMARK  110  A    between atoms: _273  and  _274
REMARK  111  A    between atoms: _276  and  _278
REMARK  112  A    between atoms: _278  and  _279
REMARK  113  A    between atoms: _278  and  _281
REMARK  114  A    between atoms: _283  and  _285
REMARK  115  A    between atoms: _285  and  _286
REMARK  116  A    between atoms: _285  and  _288
REMARK  117  A    between atoms: _288  and  _289
REMARK  118  A    between atoms: _289  and  _290
REMARK  119  A    between atoms: _290  and  _291
REMARK  120  A    between atoms: _300  and  _302
REMARK  121  A    between atoms: _302  and  _303
REMARK  122  A    between atoms: _306  and  _308
REMARK  123  A    between atoms: _308  and  _309
REMARK  124  A    between atoms: _308  and  _311
REMARK  125  A    between atoms: _311  and  _312
REMARK  126  A    between atoms: _318  and  _320
REMARK  127  A    between atoms: _320  and  _321
REMARK  128  A    between atoms: _320  and  _323
REMARK  129  A    between atoms: _326  and  _328
REMARK  130  A    between atoms: _328  and  _329
REMARK  131  A    between atoms: _328  and  _331
REMARK  132  A    between atoms: _331  and  _332
REMARK  133  A    between atoms: _335  and  _337
REMARK  134  A    between atoms: _337  and  _338
REMARK  135  A    between atoms: _337  and  _340
REMARK  136  A    between atoms: _340  and  _341
REMARK  137  A    between atoms: _347  and  _349
REMARK  138  A    between atoms: _349  and  _350
REMARK  139  A    between atoms: _349  and  _352
REMARK  140  A    between atoms: _352  and  _353
REMARK  141  A    between atoms: _353  and  _354
REMARK  142  A    between atoms: _357  and  _359
REMARK  143  A    between atoms: _359  and  _360
REMARK  144  A    between atoms: _362  and  _364
REMARK  145  A    between atoms: _364  and  _365
REMARK  146  A    between atoms: _367  and  _369
REMARK  147  A    between atoms: _369  and  _370
REMARK  148  A    between atoms: _372  and  _374
REMARK  149  A    between atoms: _374  and  _375
REMARK  150  A    between atoms: _374  and  _377
REMARK  151  A    between atoms: _377  and  _378
REMARK  152  A    between atoms: _378  and  _379
REMARK  153  A    between atoms: _381  and  _383
REMARK  154  A    between atoms: _383  and  _384
REMARK  155  A    between atoms: _383  and  _386
REMARK  156  A    between atoms: _386  and  _387
REMARK  157  A    between atoms: _387  and  _388
REMARK  158  A    between atoms: _390  and  _392
REMARK  159  A    between atoms: _392  and  _393
REMARK  160  A    between atoms: _392  and  _395
REMARK  161  A    between atoms: _395  and  _396
REMARK  162  A    between atoms: _402  and  _404
REMARK  163  A    between atoms: _404  and  _405
REMARK  164  A    between atoms: _404  and  _407
REMARK  165  A    between atoms: _407  and  _408
REMARK  166  A    between atoms: _411  and  _413
REMARK  167  A    between atoms: _413  and  _414
REMARK  168  A    between atoms: _413  and  _416
REMARK  169  A    between atoms: _416  and  _417
REMARK  170  A    between atoms: _419  and  _421
REMARK  171  A    between atoms: _421  and  _422
REMARK  172  A    between atoms: _421  and  _424
REMARK  173  A    between atoms: _424  and  _425
REMARK  174  A    between atoms: _428  and  _430
REMARK  175  A    between atoms: _430  and  _431
REMARK  176  A    between atoms: _430  and  _433
REMARK  177  A    between atoms: _436  and  _438
REMARK  178  A    between atoms: _438  and  _439
REMARK  179  A    between atoms: _438  and  _441
REMARK  180  A    between atoms: _441  and  _442
REMARK  181  A    between atoms: _447  and  _449
REMARK  182  A    between atoms: _449  and  _450
REMARK  183  A    between atoms: _449  and  _452
REMARK  184  A    between atoms: _452  and  _453
REMARK  185  A    between atoms: _453  and  _454
REMARK  186  A    between atoms: _457  and  _459
REMARK  187  A    between atoms: _459  and  _460
REMARK  188  A    between atoms: _463  and  _465
REMARK  189  A    between atoms: _465  and  _466
REMARK  190  A    between atoms: _465  and  _468
REMARK  191  A    between atoms: _468  and  _469
REMARK  192  A    between atoms: _475  and  _477
REMARK  193  A    between atoms: _477  and  _478
REMARK  194  A    between atoms: _477  and  _480
REMARK  195  A    between atoms: _480  and  _481
REMARK  196  A    between atoms: _487  and  _489
REMARK  197  A    between atoms: _489  and  _490
REMARK  198  A    between atoms: _489  and  _492
REMARK  199  A    between atoms: _492  and  _493
REMARK  200  A    between atoms: _496  and  _498
REMARK  201  A    between atoms: _498  and  _499
REMARK  202  A    between atoms: _498  and  _501
REMARK  203  A    between atoms: _504  and  _506
REMARK  204  A    between atoms: _506  and  _507
REMARK  205  A    between atoms: _506  and  _509
REMARK  206  A    between atoms: _511  and  _513
REMARK  207  A    between atoms: _513  and  _514
REMARK  208  A    between atoms: _513  and  _516
REMARK  209  A    between atoms: _516  and  _517
REMARK  210  A    between atoms: _522  and  _524
REMARK  211  A    between atoms: _524  and  _525
REMARK  212  A    between atoms: _524  and  _527
REMARK  213  A    between atoms: _527  and  _528
REMARK  214  A    between atoms: _531  and  _533
REMARK  215  A    between atoms: _533  and  _534
REMARK  216  A    between atoms: _533  and  _536
REMARK  217  A    between atoms: _536  and  _537
REMARK  218  A    between atoms: _542  and  _544
REMARK  219  A    between atoms: _544  and  _545
REMARK  220  A    between atoms: _547  and  _549
REMARK  221  A    between atoms: _549  and  _550
REMARK  222  A    between atoms: _549  and  _552
REMARK  223  A    between atoms: _552  and  _553
REMARK  224  A    between atoms: _553  and  _554
REMARK  225  A    between atoms: _554  and  _555
REMARK  226  A    between atoms: _555  and  _556
REMARK  227  A    between atoms: _560  and  _562
REMARK  228  A    between atoms: _562  and  _563
REMARK  229  A    between atoms: _562  and  _565
REMARK  230  A    between atoms: _565  and  _566
REMARK  231  A    between atoms: _571  and  _572
REMARK  232  A    between atoms: _574  and  _576
REMARK  233  A    between atoms: _576  and  _577
REMARK  234  A    between atoms: _576  and  _579
REMARK  235  A    between atoms: _579  and  _580
REMARK                            x       y       z     vdW  Elec       q    Type
REMARK                         _______ _______ _______ _____ _____    ______ ____
ROOT
ATOM      1  O   HOH     1      14.952  26.749   2.571  0.00  0.00    +0.000 OA
ENDROOT
TORSDOF 0
REMARK  Name = ../refined-set-2016/1nq7/1nq7_pocket.pdb
REMARK  235 active torsions:
REMARK  status: ('A' for Active; 'I' for Inactive)
REMARK    1  A    between atoms: _1  and  _3
REMARK    2  A    between atoms: _3  and  _4
REMARK    3  A    between atoms: _3  and  _6
REMARK    4  A    between atoms: _6  and  _7
REMARK    5  A    between atoms: _12  and  _14
REMARK    6  A    between atoms: _14  and  _15
REMARK    7  A    between atoms: _14  and  _17
REMARK    8  A    between atoms: _17  and  _18
REMARK    9  A    between atoms: _21  and  _23
REMARK   10  A    between atoms: _23  and  _24
REMARK   11  A    between atoms: _23  and  _26
REMARK   12  A    between atoms: _28  and  _30
REMARK   13  A    between atoms: _30  and  _31
REMARK   14  A    between atoms: _30  and  _33
REMARK   15  A    between atoms: _33  and  _34
REMARK   16  A    between atoms: _34  and  _35
REMARK   17  A    between atoms: _40  and  _42
REMARK   18  A    between atoms: _42  and  _43
REMARK   19  A    between atoms: _42  and  _45
REMARK   20  A    between atoms: _45  and  _46
REMARK   21  A    between atoms: _51  and  _52
REMARK   22  A    between atoms: _54  and  _56
REMARK   23  A    between atoms: _56  and  _57
REMARK   24  A    between atoms: _56  and  _59
REMARK   25  A    between atoms: _59  and  _60
REMARK   26  A    between atoms: _63  and  _65
REMARK   27  A    between atoms: _65  and  _66
REMARK   28  A    between atoms: _65  and  _68
REMARK   29  A    between atoms: _68  and  _69
REMARK   30  A    between atoms: _72  and  _74
REMARK   31  A    between atoms: _74  and  _75
REMARK   32  A    between atoms: _74  and  _77
REMARK   33  A    between atoms: _77  and  _78
REMARK   34  A    between atoms: _81  and  _83
REMARK   35  A    between atoms: _83  and  _84
REMARK   36  A    between atoms: _83  and  _86
REMARK   37  A    between atoms: _86  and  _87
REMARK   38  A    between atoms: _97  and  _99
REMARK   39  A    between atoms: _99  and  _100
REMARK   40  A    between atoms: _99  and  _102
REMARK   41  A    between atoms: _102  and  _103
REMARK   42  A    between atoms: _103  and  _104
REMARK   43  A    between atoms: _109  and  _111
REMARK   44  A    between atoms: _111  and  _112
REMARK   45  A    between atoms: _111  and  _114
REMARK   46  A    between atoms: _116  and  _118
REMARK   47  A    between atoms: _118  and  _119
REMARK   48  A    between atoms: _122  and  _124
REMARK   49  A    between atoms: _124  and  _125
REMARK   50  A    between atoms: _124  and  _127
REMARK   51  A    between atoms: _127  and  _128
REMARK   52  A    between atoms: _128  and  _129
REMARK   53  A    between atoms: _134  and  _136
REMARK   54  A    between atoms: _136  and  _137
REMARK   55  A    between atoms: _136  and  _139
REMARK   56  A    between atoms: _139  and  _140
REMARK   57  A    between atoms: _143  and  _145
REMARK   58  A    between atoms: _145  and  _146
REMARK   59  A    between atoms: _145  and  _148
REMARK   60  A    between atoms: _148  and  _149
REMARK   61  A    between atoms: _154  and  _156
REMARK   62  A    between atoms: _156  and  _157
REMARK   63  A    between atoms: _160  and  _162
REMARK   64  A    between atoms: _162  and  _163
REMARK   65  A    between atoms: _162  and  _165
REMARK   66  A    between atoms: _165  and  _166
REMARK   67  A    between atoms: _169  and  _171
REMARK   68  A    between atoms: _171  and  _172
REMARK   69  A    between atoms: _171  and  _174
REMARK   70  A    between atoms: _174  and  _175
REMARK   71  A    between atoms: _180  and  _181
REMARK   72  A    between atoms: _183  and  _185
REMARK   73  A    between atoms: _185  and  _186
REMARK   74  A    between atoms: _185  and  _188
REMARK   75  A    between atoms: _191  and  _193
REMARK   76  A    between atoms: _193  and  _194
REMARK   77  A    between atoms: _193  and  _196
REMARK   78  A    between atoms: _198  and  _200
REMARK   79  A    between atoms: _200  and  _201
REMARK   80  A    between atoms: _200  and  _203
REMARK   81  A    between atoms: _203  and  _204
REMARK   82  A    between atoms: _207  and  _209
REMARK   83  A    between atoms: _209  and  _210
REMARK   84  A    between atoms: _209  and  _212
REMARK   85  A    between atoms: _212  and  _213
REMARK   86  A    between atoms: _213  and  _214
REMARK   87  A    between atoms: _217  and  _219
REMARK   88  A    between atoms: _219  and  _220
REMARK   89  A    between atoms: _219  and  _222
REMARK   90  A    between atoms: _225  and  _227
REMARK   91  A    between atoms: _227  and  _228
REMARK   92  A    between atoms: _227  and  _230
REMARK   93  A    between atoms: _233  and  _235
REMARK   94  A    between atoms: _235  and  _236
REMARK   95  A    between atoms: _235  and  _238
REMARK   96  A    between atoms: _238  and  _239
REMARK   97  A    between atoms: _242  and  _244
REMARK   98  A    between atoms: _244  and  _245
REMARK   99  A    between atoms: _244  and  _247
REMARK  100  A    between atoms: _250  and  _252
REMARK  101  A    between atoms: _252  and  _253
REMARK  102  A    between atoms: _252  and  _255
REMARK  103  A    between atoms: _255  and  _256
REMARK  104  A    between atoms: _256  and  _257
REMARK  105  A    between atoms: _257  and  _258
REMARK  106  A    between atoms: _267  and  _269
REMARK  107  A    between atoms: _269  and  _270
REMARK  108  A    between atoms: _269  and  _272
REMARK  109  A    between atoms: _272  and  _273
REMARK  110  A    between atoms: _273  and  _274
REMARK  111  A    between atoms: _276  and  _278
REMARK  112  A    between atoms: _278  and  _279
REMARK  113  A    between atoms: _278  and  _281
REMARK  114  A    between atoms: _283  and  _285
REMARK  115  A    between atoms: _285  and  _286
REMARK  116  A    between atoms: _285  and  _288
REMARK  117  A    between atoms: _288  and  _289
REMARK  118  A    between atoms: _289  and  _290
REMARK  119  A    between atoms: _290  and  _291
REMARK  120  A    between atoms: _300  and  _302
REMARK  121  A    between atoms: _302  and  _303
REMARK  122  A    between atoms: _306  and  _308
REMARK  123  A    between atoms: _308  and  _309
REMARK  124  A    between atoms: _308  and  _311
REMARK  125  A    between atoms: _311  and  _312
REMARK  126  A    between atoms: _318  and  _320
REMARK  127  A    between atoms: _320  and  _321
REMARK  128  A    between atoms: _320  and  _323
REMARK  129  A    between atoms: _326  and  _328
REMARK  130  A    between atoms: _328  and  _329
REMARK  131  A    between atoms: _328  and  _331
REMARK  132  A    between atoms: _331  and  _332
REMARK  133  A    between atoms: _335  and  _337
REMARK  134  A    between atoms: _337  and  _338
REMARK  135  A    between atoms: _337  and  _340
REMARK  136  A    between atoms: _340  and  _341
REMARK  137  A    between atoms: _347  and  _349
REMARK  138  A    between atoms: _349  and  _350
REMARK  139  A    between atoms: _349  and  _352
REMARK  140  A    between atoms: _352  and  _353
REMARK  141  A    between atoms: _353  and  _354
REMARK  142  A    between atoms: _357  and  _359
REMARK  143  A    between atoms: _359  and  _360
REMARK  144  A    between atoms: _362  and  _364
REMARK  145  A    between atoms: _364  and  _365
REMARK  146  A    between atoms: _367  and  _369
REMARK  147  A    between atoms: _369  and  _370
REMARK  148  A    between atoms: _372  and  _374
REMARK  149  A    between atoms: _374  and  _375
REMARK  150  A    between atoms: _374  and  _377
REMARK  151  A    between atoms: _377  and  _378
REMARK  152  A    between atoms: _378  and  _379
REMARK  153  A    between atoms: _381  and  _383
REMARK  154  A    between atoms: _383  and  _384
REMARK  155  A    between atoms: _383  and  _386
REMARK  156  A    between atoms: _386  and  _387
REMARK  157  A    between atoms: _387  and  _388
REMARK  158  A    between atoms: _390  and  _392
REMARK  159  A    between atoms: _392  and  _393
REMARK  160  A    between atoms: _392  and  _395
REMARK  161  A    between atoms: _395  and  _396
REMARK  162  A    between atoms: _402  and  _404
REMARK  163  A    between atoms: _404  and  _405
REMARK  164  A    between atoms: _404  and  _407
REMARK  165  A    between atoms: _407  and  _408
REMARK  166  A    between atoms: _411  and  _413
REMARK  167  A    between atoms: _413  and  _414
REMARK  168  A    between atoms: _413  and  _416
REMARK  169  A    between atoms: _416  and  _417
REMARK  170  A    between atoms: _419  and  _421
REMARK  171  A    between atoms: _421  and  _422
REMARK  172  A    between atoms: _421  and  _424
REMARK  173  A    between atoms: _424  and  _425
REMARK  174  A    between atoms: _428  and  _430
REMARK  175  A    between atoms: _430  and  _431
REMARK  176  A    between atoms: _430  and  _433
REMARK  177  A    between atoms: _436  and  _438
REMARK  178  A    between atoms: _438  and  _439
REMARK  179  A    between atoms: _438  and  _441
REMARK  180  A    between atoms: _441  and  _442
REMARK  181  A    between atoms: _447  and  _449
REMARK  182  A    between atoms: _449  and  _450
REMARK  183  A    between atoms: _449  and  _452
REMARK  184  A    between atoms: _452  and  _453
REMARK  185  A    between atoms: _453  and  _454
REMARK  186  A    between atoms: _457  and  _459
REMARK  187  A    between atoms: _459  and  _460
REMARK  188  A    between atoms: _463  and  _465
REMARK  189  A    between atoms: _465  and  _466
REMARK  190  A    between atoms: _465  and  _468
REMARK  191  A    between atoms: _468  and  _469
REMARK  192  A    between atoms: _475  and  _477
REMARK  193  A    between atoms: _477  and  _478
REMARK  194  A    between atoms: _477  and  _480
REMARK  195  A    between atoms: _480  and  _481
REMARK  196  A    between atoms: _487  and  _489
REMARK  197  A    between atoms: _489  and  _490
REMARK  198  A    between atoms: _489  and  _492
REMARK  199  A    between atoms: _492  and  _493
REMARK  200  A    between atoms: _496  and  _498
REMARK  201  A    between atoms: _498  and  _499
REMARK  202  A    between atoms: _498  and  _501
REMARK  203  A    between atoms: _504  and  _506
REMARK  204  A    between atoms: _506  and  _507
REMARK  205  A    between atoms: _506  and  _509
REMARK  206  A    between atoms: _511  and  _513
REMARK  207  A    between atoms: _513  and  _514
REMARK  208  A    between atoms: _513  and  _516
REMARK  209  A    between atoms: _516  and  _517
REMARK  210  A    between atoms: _522  and  _524
REMARK  211  A    between atoms: _524  and  _525
REMARK  212  A    between atoms: _524  and  _527
REMARK  213  A    between atoms: _527  and  _528
REMARK  214  A    between atoms: _531  and  _533
REMARK  215  A    between atoms: _533  and  _534
REMARK  216  A    between atoms: _533  and  _536
REMARK  217  A    between atoms: _536  and  _537
REMARK  218  A    between atoms: _542  and  _544
REMARK  219  A    between atoms: _544  and  _545
REMARK  220  A    between atoms: _547  and  _549
REMARK  221  A    between atoms: _549  and  _550
REMARK  222  A    between atoms: _549  and  _552
REMARK  223  A    between atoms: _552  and  _553
REMARK  224  A    between atoms: _553  and  _554
REMARK  225  A    between atoms: _554  and  _555
REMARK  226  A    between atoms: _555  and  _556
REMARK  227  A    between atoms: _560  and  _562
REMARK  228  A    between atoms: _562  and  _563
REMARK  229  A    between atoms: _562  and  _565
REMARK  230  A    between atoms: _565  and  _566
REMARK  231  A    between atoms: _571  and  _572
REMARK  232  A    between atoms: _574  and  _576
REMARK  233  A    between atoms: _576  and  _577
REMARK  234  A    between atoms: _576  and  _579
REMARK  235  A    between atoms: _579  and  _580
REMARK                            x       y       z     vdW  Elec       q    Type
REMARK                         _______ _______ _______ _____ _____    ______ ____
ROOT
ATOM      1  O   HOH     1      15.595  22.288   5.971  0.00  0.00    +0.000 OA
ENDROOT
TORSDOF 0
REMARK  Name = ../refined-set-2016/1nq7/1nq7_pocket.pdb
REMARK  235 active torsions:
REMARK  status: ('A' for Active; 'I' for Inactive)
REMARK    1  A    between atoms: _1  and  _3
REMARK    2  A    between atoms: _3  and  _4
REMARK    3  A    between atoms: _3  and  _6
REMARK    4  A    between atoms: _6  and  _7
REMARK    5  A    between atoms: _12  and  _14
REMARK    6  A    between atoms: _14  and  _15
REMARK    7  A    between atoms: _14  and  _17
REMARK    8  A    between atoms: _17  and  _18
REMARK    9  A    between atoms: _21  and  _23
REMARK   10  A    between atoms: _23  and  _24
REMARK   11  A    between atoms: _23  and  _26
REMARK   12  A    between atoms: _28  and  _30
REMARK   13  A    between atoms: _30  and  _31
REMARK   14  A    between atoms: _30  and  _33
REMARK   15  A    between atoms: _33  and  _34
REMARK   16  A    between atoms: _34  and  _35
REMARK   17  A    between atoms: _40  and  _42
REMARK   18  A    between atoms: _42  and  _43
REMARK   19  A    between atoms: _42  and  _45
REMARK   20  A    between atoms: _45  and  _46
REMARK   21  A    between atoms: _51  and  _52
REMARK   22  A    between atoms: _54  and  _56
REMARK   23  A    between atoms: _56  and  _57
REMARK   24  A    between atoms: _56  and  _59
REMARK   25  A    between atoms: _59  and  _60
REMARK   26  A    between atoms: _63  and  _65
REMARK   27  A    between atoms: _65  and  _66
REMARK   28  A    between atoms: _65  and  _68
REMARK   29  A    between atoms: _68  and  _69
REMARK   30  A    between atoms: _72  and  _74
REMARK   31  A    between atoms: _74  and  _75
REMARK   32  A    between atoms: _74  and  _77
REMARK   33  A    between atoms: _77  and  _78
REMARK   34  A    between atoms: _81  and  _83
REMARK   35  A    between atoms: _83  and  _84
REMARK   36  A    between atoms: _83  and  _86
REMARK   37  A    between atoms: _86  and  _87
REMARK   38  A    between atoms: _97  and  _99
REMARK   39  A    between atoms: _99  and  _100
REMARK   40  A    between atoms: _99  and  _102
REMARK   41  A    between atoms: _102  and  _103
REMARK   42  A    between atoms: _103  and  _104
REMARK   43  A    between atoms: _109  and  _111
REMARK   44  A    between atoms: _111  and  _112
REMARK   45  A    between atoms: _111  and  _114
REMARK   46  A    between atoms: _116  and  _118
REMARK   47  A    between atoms: _118  and  _119
REMARK   48  A    between atoms: _122  and  _124
REMARK   49  A    between atoms: _124  and  _125
REMARK   50  A    between atoms: _124  and  _127
REMARK   51  A    between atoms: _127  and  _128
REMARK   52  A    between atoms: _128  and  _129
REMARK   53  A    between atoms: _134  and  _136
REMARK   54  A    between atoms: _136  and  _137
REMARK   55  A    between atoms: _136  and  _139
REMARK   56  A    between atoms: _139  and  _140
REMARK   57  A    between atoms: _143  and  _145
REMARK   58  A    between atoms: _145  and  _146
REMARK   59  A    between atoms: _145  and  _148
REMARK   60  A    between atoms: _148  and  _149
REMARK   61  A    between atoms: _154  and  _156
REMARK   62  A    between atoms: _156  and  _157
REMARK   63  A    between atoms: _160  and  _162
REMARK   64  A    between atoms: _162  and  _163
REMARK   65  A    between atoms: _162  and  _165
REMARK   66  A    between atoms: _165  and  _166
REMARK   67  A    between atoms: _169  and  _171
REMARK   68  A    between atoms: _171  and  _172
REMARK   69  A    between atoms: _171  and  _174
REMARK   70  A    between atoms: _174  and  _175
REMARK   71  A    between atoms: _180  and  _181
REMARK   72  A    between atoms: _183  and  _185
REMARK   73  A    between atoms: _185  and  _186
REMARK   74  A    between atoms: _185  and  _188
REMARK   75  A    between atoms: _191  and  _193
REMARK   76  A    between atoms: _193  and  _194
REMARK   77  A    between atoms: _193  and  _196
REMARK   78  A    between atoms: _198  and  _200
REMARK   79  A    between atoms: _200  and  _201
REMARK   80  A    between atoms: _200  and  _203
REMARK   81  A    between atoms: _203  and  _204
REMARK   82  A    between atoms: _207  and  _209
REMARK   83  A    between atoms: _209  and  _210
REMARK   84  A    between atoms: _209  and  _212
REMARK   85  A    between atoms: _212  and  _213
REMARK   86  A    between atoms: _213  and  _214
REMARK   87  A    between atoms: _217  and  _219
REMARK   88  A    between atoms: _219  and  _220
REMARK   89  A    between atoms: _219  and  _222
REMARK   90  A    between atoms: _225  and  _227
REMARK   91  A    between atoms: _227  and  _228
REMARK   92  A    between atoms: _227  and  _230
REMARK   93  A    between atoms: _233  and  _235
REMARK   94  A    between atoms: _235  and  _236
REMARK   95  A    between atoms: _235  and  _238
REMARK   96  A    between atoms: _238  and  _239
REMARK   97  A    between atoms: _242  and  _244
REMARK   98  A    between atoms: _244  and  _245
REMARK   99  A    between atoms: _244  and  _247
REMARK  100  A    between atoms: _250  and  _252
REMARK  101  A    between atoms: _252  and  _253
REMARK  102  A    between atoms: _252  and  _255
REMARK  103  A    between atoms: _255  and  _256
REMARK  104  A    between atoms: _256  and  _257
REMARK  105  A    between atoms: _257  and  _258
REMARK  106  A    between atoms: _267  and  _269
REMARK  107  A    between atoms: _269  and  _270
REMARK  108  A    between atoms: _269  and  _272
REMARK  109  A    between atoms: _272  and  _273
REMARK  110  A    between atoms: _273  and  _274
REMARK  111  A    between atoms: _276  and  _278
REMARK  112  A    between atoms: _278  and  _279
REMARK  113  A    between atoms: _278  and  _281
REMARK  114  A    between atoms: _283  and  _285
REMARK  115  A    between atoms: _285  and  _286
REMARK  116  A    between atoms: _285  and  _288
REMARK  117  A    between atoms: _288  and  _289
REMARK  118  A    between atoms: _289  and  _290
REMARK  119  A    between atoms: _290  and  _291
REMARK  120  A    between atoms: _300  and  _302
REMARK  121  A    between atoms: _302  and  _303
REMARK  122  A    between atoms: _306  and  _308
REMARK  123  A    between atoms: _308  and  _309
REMARK  124  A    between atoms: _308  and  _311
REMARK  125  A    between atoms: _311  and  _312
REMARK  126  A    between atoms: _318  and  _320
REMARK  127  A    between atoms: _320  and  _321
REMARK  128  A    between atoms: _320  and  _323
REMARK  129  A    between atoms: _326  and  _328
REMARK  130  A    between atoms: _328  and  _329
REMARK  131  A    between atoms: _328  and  _331
REMARK  132  A    between atoms: _331  and  _332
REMARK  133  A    between atoms: _335  and  _337
REMARK  134  A    between atoms: _337  and  _338
REMARK  135  A    between atoms: _337  and  _340
REMARK  136  A    between atoms: _340  and  _341
REMARK  137  A    between atoms: _347  and  _349
REMARK  138  A    between atoms: _349  and  _350
REMARK  139  A    between atoms: _349  and  _352
REMARK  140  A    between atoms: _352  and  _353
REMARK  141  A    between atoms: _353  and  _354
REMARK  142  A    between atoms: _357  and  _359
REMARK  143  A    between atoms: _359  and  _360
REMARK  144  A    between atoms: _362  and  _364
REMARK  145  A    between atoms: _364  and  _365
REMARK  146  A    between atoms: _367  and  _369
REMARK  147  A    between atoms: _369  and  _370
REMARK  148  A    between atoms: _372  and  _374
REMARK  149  A    between atoms: _374  and  _375
REMARK  150  A    between atoms: _374  and  _377
REMARK  151  A    between atoms: _377  and  _378
REMARK  152  A    between atoms: _378  and  _379
REMARK  153  A    between atoms: _381  and  _383
REMARK  154  A    between atoms: _383  and  _384
REMARK  155  A    between atoms: _383  and  _386
REMARK  156  A    between atoms: _386  and  _387
REMARK  157  A    between atoms: _387  and  _388
REMARK  158  A    between atoms: _390  and  _392
REMARK  159  A    between atoms: _392  and  _393
REMARK  160  A    between atoms: _392  and  _395
REMARK  161  A    between atoms: _395  and  _396
REMARK  162  A    between atoms: _402  and  _404
REMARK  163  A    between atoms: _404  and  _405
REMARK  164  A    between atoms: _404  and  _407
REMARK  165  A    between atoms: _407  and  _408
REMARK  166  A    between atoms: _411  and  _413
REMARK  167  A    between atoms: _413  and  _414
REMARK  168  A    between atoms: _413  and  _416
REMARK  169  A    between atoms: _416  and  _417
REMARK  170  A    between atoms: _419  and  _421
REMARK  171  A    between atoms: _421  and  _422
REMARK  172  A    between atoms: _421  and  _424
REMARK  173  A    between atoms: _424  and  _425
REMARK  174  A    between atoms: _428  and  _430
REMARK  175  A    between atoms: _430  and  _431
REMARK  176  A    between atoms: _430  and  _433
REMARK  177  A    between atoms: _436  and  _438
REMARK  178  A    between atoms: _438  and  _439
REMARK  179  A    between atoms: _438  and  _441
REMARK  180  A    between atoms: _441  and  _442
REMARK  181  A    between atoms: _447  and  _449
REMARK  182  A    between atoms: _449  and  _450
REMARK  183  A    between atoms: _449  and  _452
REMARK  184  A    between atoms: _452  and  _453
REMARK  185  A    between atoms: _453  and  _454
REMARK  186  A    between atoms: _457  and  _459
REMARK  187  A    between atoms: _459  and  _460
REMARK  188  A    between atoms: _463  and  _465
REMARK  189  A    between atoms: _465  and  _466
REMARK  190  A    between atoms: _465  and  _468
REMARK  191  A    between atoms: _468  and  _469
REMARK  192  A    between atoms: _475  and  _477
REMARK  193  A    between atoms: _477  and  _478
REMARK  194  A    between atoms: _477  and  _480
REMARK  195  A    between atoms: _480  and  _481
REMARK  196  A    between atoms: _487  and  _489
REMARK  197  A    between atoms: _489  and  _490
REMARK  198  A    between atoms: _489  and  _492
REMARK  199  A    between atoms: _492  and  _493
REMARK  200  A    between atoms: _496  and  _498
REMARK  201  A    between atoms: _498  and  _499
REMARK  202  A    between atoms: _498  and  _501
REMARK  203  A    between atoms: _504  and  _506
REMARK  204  A    between atoms: _506  and  _507
REMARK  205  A    between atoms: _506  and  _509
REMARK  206  A    between atoms: _511  and  _513
REMARK  207  A    between atoms: _513  and  _514
REMARK  208  A    between atoms: _513  and  _516
REMARK  209  A    between atoms: _516  and  _517
REMARK  210  A    between atoms: _522  and  _524
REMARK  211  A    between atoms: _524  and  _525
REMARK  212  A    between atoms: _524  and  _527
REMARK  213  A    between atoms: _527  and  _528
REMARK  214  A    between atoms: _531  and  _533
REMARK  215  A    between atoms: _533  and  _534
REMARK  216  A    between atoms: _533  and  _536
REMARK  217  A    between atoms: _536  and  _537
REMARK  218  A    between atoms: _542  and  _544
REMARK  219  A    between atoms: _544  and  _545
REMARK  220  A    between atoms: _547  and  _549
REMARK  221  A    between atoms: _549  and  _550
REMARK  222  A    between atoms: _549  and  _552
REMARK  223  A    between atoms: _552  and  _553
REMARK  224  A    between atoms: _553  and  _554
REMARK  225  A    between atoms: _554  and  _555
REMARK  226  A    between atoms: _555  and  _556
REMARK  227  A    between atoms: _560  and  _562
REMARK  228  A    between atoms: _562  and  _563
REMARK  229  A    between atoms: _562  and  _565
REMARK  230  A    between atoms: _565  and  _566
REMARK  231  A    between atoms: _571  and  _572
REMARK  232  A    between atoms: _574  and  _576
REMARK  233  A    between atoms: _576  and  _577
REMARK  234  A    between atoms: _576  and  _579
REMARK  235  A    between atoms: _579  and  _580
REMARK                            x       y       z     vdW  Elec       q    Type
REMARK                         _______ _______ _______ _____ _____    ______ ____
ROOT
ATOM      1  O   HOH     1      32.219  17.527  15.343  0.00  0.00    +0.000 OA
ENDROOT
TORSDOF 0
REMARK  Name = ../refined-set-2016/1nq7/1nq7_pocket.pdb
REMARK  235 active torsions:
REMARK  status: ('A' for Active; 'I' for Inactive)
REMARK    1  A    between atoms: _1  and  _3
REMARK    2  A    between atoms: _3  and  _4
REMARK    3  A    between atoms: _3  and  _6
REMARK    4  A    between atoms: _6  and  _7
REMARK    5  A    between atoms: _12  and  _14
REMARK    6  A    between atoms: _14  and  _15
REMARK    7  A    between atoms: _14  and  _17
REMARK    8  A    between atoms: _17  and  _18
REMARK    9  A    between atoms: _21  and  _23
REMARK   10  A    between atoms: _23  and  _24
REMARK   11  A    between atoms: _23  and  _26
REMARK   12  A    between atoms: _28  and  _30
REMARK   13  A    between atoms: _30  and  _31
REMARK   14  A    between atoms: _30  and  _33
REMARK   15  A    between atoms: _33  and  _34
REMARK   16  A    between atoms: _34  and  _35
REMARK   17  A    between atoms: _40  and  _42
REMARK   18  A    between atoms: _42  and  _43
REMARK   19  A    between atoms: _42  and  _45
REMARK   20  A    between atoms: _45  and  _46
REMARK   21  A    between atoms: _51  and  _52
REMARK   22  A    between atoms: _54  and  _56
REMARK   23  A    between atoms: _56  and  _57
REMARK   24  A    between atoms: _56  and  _59
REMARK   25  A    between atoms: _59  and  _60
REMARK   26  A    between atoms: _63  and  _65
REMARK   27  A    between atoms: _65  and  _66
REMARK   28  A    between atoms: _65  and  _68
REMARK   29  A    between atoms: _68  and  _69
REMARK   30  A    between atoms: _72  and  _74
REMARK   31  A    between atoms: _74  and  _75
REMARK   32  A    between atoms: _74  and  _77
REMARK   33  A    between atoms: _77  and  _78
REMARK   34  A    between atoms: _81  and  _83
REMARK   35  A    between atoms: _83  and  _84
REMARK   36  A    between atoms: _83  and  _86
REMARK   37  A    between atoms: _86  and  _87
REMARK   38  A    between atoms: _97  and  _99
REMARK   39  A    between atoms: _99  and  _100
REMARK   40  A    between atoms: _99  and  _102
REMARK   41  A    between atoms: _102  and  _103
REMARK   42  A    between atoms: _103  and  _104
REMARK   43  A    between atoms: _109  and  _111
REMARK   44  A    between atoms: _111  and  _112
REMARK   45  A    between atoms: _111  and  _114
REMARK   46  A    between atoms: _116  and  _118
REMARK   47  A    between atoms: _118  and  _119
REMARK   48  A    between atoms: _122  and  _124
REMARK   49  A    between atoms: _124  and  _125
REMARK   50  A    between atoms: _124  and  _127
REMARK   51  A    between atoms: _127  and  _128
REMARK   52  A    between atoms: _128  and  _129
REMARK   53  A    between atoms: _134  and  _136
REMARK   54  A    between atoms: _136  and  _137
REMARK   55  A    between atoms: _136  and  _139
REMARK   56  A    between atoms: _139  and  _140
REMARK   57  A    between atoms: _143  and  _145
REMARK   58  A    between atoms: _145  and  _146
REMARK   59  A    between atoms: _145  and  _148
REMARK   60  A    between atoms: _148  and  _149
REMARK   61  A    between atoms: _154  and  _156
REMARK   62  A    between atoms: _156  and  _157
REMARK   63  A    between atoms: _160  and  _162
REMARK   64  A    between atoms: _162  and  _163
REMARK   65  A    between atoms: _162  and  _165
REMARK   66  A    between atoms: _165  and  _166
REMARK   67  A    between atoms: _169  and  _171
REMARK   68  A    between atoms: _171  and  _172
REMARK   69  A    between atoms: _171  and  _174
REMARK   70  A    between atoms: _174  and  _175
REMARK   71  A    between atoms: _180  and  _181
REMARK   72  A    between atoms: _183  and  _185
REMARK   73  A    between atoms: _185  and  _186
REMARK   74  A    between atoms: _185  and  _188
REMARK   75  A    between atoms: _191  and  _193
REMARK   76  A    between atoms: _193  and  _194
REMARK   77  A    between atoms: _193  and  _196
REMARK   78  A    between atoms: _198  and  _200
REMARK   79  A    between atoms: _200  and  _201
REMARK   80  A    between atoms: _200  and  _203
REMARK   81  A    between atoms: _203  and  _204
REMARK   82  A    between atoms: _207  and  _209
REMARK   83  A    between atoms: _209  and  _210
REMARK   84  A    between atoms: _209  and  _212
REMARK   85  A    between atoms: _212  and  _213
REMARK   86  A    between atoms: _213  and  _214
REMARK   87  A    between atoms: _217  and  _219
REMARK   88  A    between atoms: _219  and  _220
REMARK   89  A    between atoms: _219  and  _222
REMARK   90  A    between atoms: _225  and  _227
REMARK   91  A    between atoms: _227  and  _228
REMARK   92  A    between atoms: _227  and  _230
REMARK   93  A    between atoms: _233  and  _235
REMARK   94  A    between atoms: _235  and  _236
REMARK   95  A    between atoms: _235  and  _238
REMARK   96  A    between atoms: _238  and  _239
REMARK   97  A    between atoms: _242  and  _244
REMARK   98  A    between atoms: _244  and  _245
REMARK   99  A    between atoms: _244  and  _247
REMARK  100  A    between atoms: _250  and  _252
REMARK  101  A    between atoms: _252  and  _253
REMARK  102  A    between atoms: _252  and  _255
REMARK  103  A    between atoms: _255  and  _256
REMARK  104  A    between atoms: _256  and  _257
REMARK  105  A    between atoms: _257  and  _258
REMARK  106  A    between atoms: _267  and  _269
REMARK  107  A    between atoms: _269  and  _270
REMARK  108  A    between atoms: _269  and  _272
REMARK  109  A    between atoms: _272  and  _273
REMARK  110  A    between atoms: _273  and  _274
REMARK  111  A    between atoms: _276  and  _278
REMARK  112  A    between atoms: _278  and  _279
REMARK  113  A    between atoms: _278  and  _281
REMARK  114  A    between atoms: _283  and  _285
REMARK  115  A    between atoms: _285  and  _286
REMARK  116  A    between atoms: _285  and  _288
REMARK  117  A    between atoms: _288  and  _289
REMARK  118  A    between atoms: _289  and  _290
REMARK  119  A    between atoms: _290  and  _291
REMARK  120  A    between atoms: _300  and  _302
REMARK  121  A    between atoms: _302  and  _303
REMARK  122  A    between atoms: _306  and  _308
REMARK  123  A    between atoms: _308  and  _309
REMARK  124  A    between atoms: _308  and  _311
REMARK  125  A    between atoms: _311  and  _312
REMARK  126  A    between atoms: _318  and  _320
REMARK  127  A    between atoms: _320  and  _321
REMARK  128  A    between atoms: _320  and  _323
REMARK  129  A    between atoms: _326  and  _328
REMARK  130  A    between atoms: _328  and  _329
REMARK  131  A    between atoms: _328  and  _331
REMARK  132  A    between atoms: _331  and  _332
REMARK  133  A    between atoms: _335  and  _337
REMARK  134  A    between atoms: _337  and  _338
REMARK  135  A    between atoms: _337  and  _340
REMARK  136  A    between atoms: _340  and  _341
REMARK  137  A    between atoms: _347  and  _349
REMARK  138  A    between atoms: _349  and  _350
REMARK  139  A    between atoms: _349  and  _352
REMARK  140  A    between atoms: _352  and  _353
REMARK  141  A    between atoms: _353  and  _354
REMARK  142  A    between atoms: _357  and  _359
REMARK  143  A    between atoms: _359  and  _360
REMARK  144  A    between atoms: _362  and  _364
REMARK  145  A    between atoms: _364  and  _365
REMARK  146  A    between atoms: _367  and  _369
REMARK  147  A    between atoms: _369  and  _370
REMARK  148  A    between atoms: _372  and  _374
REMARK  149  A    between atoms: _374  and  _375
REMARK  150  A    between atoms: _374  and  _377
REMARK  151  A    between atoms: _377  and  _378
REMARK  152  A    between atoms: _378  and  _379
REMARK  153  A    between atoms: _381  and  _383
REMARK  154  A    between atoms: _383  and  _384
REMARK  155  A    between atoms: _383  and  _386
REMARK  156  A    between atoms: _386  and  _387
REMARK  157  A    between atoms: _387  and  _388
REMARK  158  A    between atoms: _390  and  _392
REMARK  159  A    between atoms: _392  and  _393
REMARK  160  A    between atoms: _392  and  _395
REMARK  161  A    between atoms: _395  and  _396
REMARK  162  A    between atoms: _402  and  _404
REMARK  163  A    between atoms: _404  and  _405
REMARK  164  A    between atoms: _404  and  _407
REMARK  165  A    between atoms: _407  and  _408
REMARK  166  A    between atoms: _411  and  _413
REMARK  167  A    between atoms: _413  and  _414
REMARK  168  A    between atoms: _413  and  _416
REMARK  169  A    between atoms: _416  and  _417
REMARK  170  A    between atoms: _419  and  _421
REMARK  171  A    between atoms: _421  and  _422
REMARK  172  A    between atoms: _421  and  _424
REMARK  173  A    between atoms: _424  and  _425
REMARK  174  A    between atoms: _428  and  _430
REMARK  175  A    between atoms: _430  and  _431
REMARK  176  A    between atoms: _430  and  _433
REMARK  177  A    between atoms: _436  and  _438
REMARK  178  A    between atoms: _438  and  _439
REMARK  179  A    between atoms: _438  and  _441
REMARK  180  A    between atoms: _441  and  _442
REMARK  181  A    between atoms: _447  and  _449
REMARK  182  A    between atoms: _449  and  _450
REMARK  183  A    between atoms: _449  and  _452
REMARK  184  A    between atoms: _452  and  _453
REMARK  185  A    between atoms: _453  and  _454
REMARK  186  A    between atoms: _457  and  _459
REMARK  187  A    between atoms: _459  and  _460
REMARK  188  A    between atoms: _463  and  _465
REMARK  189  A    between atoms: _465  and  _466
REMARK  190  A    between atoms: _465  and  _468
REMARK  191  A    between atoms: _468  and  _469
REMARK  192  A    between atoms: _475  and  _477
REMARK  193  A    between atoms: _477  and  _478
REMARK  194  A    between atoms: _477  and  _480
REMARK  195  A    between atoms: _480  and  _481
REMARK  196  A    between atoms: _487  and  _489
REMARK  197  A    between atoms: _489  and  _490
REMARK  198  A    between atoms: _489  and  _492
REMARK  199  A    between atoms: _492  and  _493
REMARK  200  A    between atoms: _496  and  _498
REMARK  201  A    between atoms: _498  and  _499
REMARK  202  A    between atoms: _498  and  _501
REMARK  203  A    between atoms: _504  and  _506
REMARK  204  A    between atoms: _506  and  _507
REMARK  205  A    between atoms: _506  and  _509
REMARK  206  A    between atoms: _511  and  _513
REMARK  207  A    between atoms: _513  and  _514
REMARK  208  A    between atoms: _513  and  _516
REMARK  209  A    between atoms: _516  and  _517
REMARK  210  A    between atoms: _522  and  _524
REMARK  211  A    between atoms: _524  and  _525
REMARK  212  A    between atoms: _524  and  _527
REMARK  213  A    between atoms: _527  and  _528
REMARK  214  A    between atoms: _531  and  _533
REMARK  215  A    between atoms: _533  and  _534
REMARK  216  A    between atoms: _533  and  _536
REMARK  217  A    between atoms: _536  and  _537
REMARK  218  A    between atoms: _542  and  _544
REMARK  219  A    between atoms: _544  and  _545
REMARK  220  A    between atoms: _547  and  _549
REMARK  221  A    between atoms: _549  and  _550
REMARK  222  A    between atoms: _549  and  _552
REMARK  223  A    between atoms: _552  and  _553
REMARK  224  A    between atoms: _553  and  _554
REMARK  225  A    between atoms: _554  and  _555
REMARK  226  A    between atoms: _555  and  _556
REMARK  227  A    between atoms: _560  and  _562
REMARK  228  A    between atoms: _562  and  _563
REMARK  229  A    between atoms: _562  and  _565
REMARK  230  A    between atoms: _565  and  _566
REMARK  231  A    between atoms: _571  and  _572
REMARK  232  A    between atoms: _574  and  _576
REMARK  233  A    between atoms: _576  and  _577
REMARK  234  A    between atoms: _576  and  _579
REMARK  235  A    between atoms: _579  and  _580
REMARK                            x       y       z     vdW  Elec       q    Type
REMARK                         _______ _______ _______ _____ _____    ______ ____
ROOT
ATOM      1  O   HOH     1      35.079  17.478   9.320  0.00  0.00    +0.000 OA
ENDROOT
TORSDOF 0
REMARK  Name = ../refined-set-2016/1nq7/1nq7_pocket.pdb
REMARK  235 active torsions:
REMARK  status: ('A' for Active; 'I' for Inactive)
REMARK    1  A    between atoms: _1  and  _3
REMARK    2  A    between atoms: _3  and  _4
REMARK    3  A    between atoms: _3  and  _6
REMARK    4  A    between atoms: _6  and  _7
REMARK    5  A    between atoms: _12  and  _14
REMARK    6  A    between atoms: _14  and  _15
REMARK    7  A    between atoms: _14  and  _17
REMARK    8  A    between atoms: _17  and  _18
REMARK    9  A    between atoms: _21  and  _23
REMARK   10  A    between atoms: _23  and  _24
REMARK   11  A    between atoms: _23  and  _26
REMARK   12  A    between atoms: _28  and  _30
REMARK   13  A    between atoms: _30  and  _31
REMARK   14  A    between atoms: _30  and  _33
REMARK   15  A    between atoms: _33  and  _34
REMARK   16  A    between atoms: _34  and  _35
REMARK   17  A    between atoms: _40  and  _42
REMARK   18  A    between atoms: _42  and  _43
REMARK   19  A    between atoms: _42  and  _45
REMARK   20  A    between atoms: _45  and  _46
REMARK   21  A    between atoms: _51  and  _52
REMARK   22  A    between atoms: _54  and  _56
REMARK   23  A    between atoms: _56  and  _57
REMARK   24  A    between atoms: _56  and  _59
REMARK   25  A    between atoms: _59  and  _60
REMARK   26  A    between atoms: _63  and  _65
REMARK   27  A    between atoms: _65  and  _66
REMARK   28  A    between atoms: _65  and  _68
REMARK   29  A    between atoms: _68  and  _69
REMARK   30  A    between atoms: _72  and  _74
REMARK   31  A    between atoms: _74  and  _75
REMARK   32  A    between atoms: _74  and  _77
REMARK   33  A    between atoms: _77  and  _78
REMARK   34  A    between atoms: _81  and  _83
REMARK   35  A    between atoms: _83  and  _84
REMARK   36  A    between atoms: _83  and  _86
REMARK   37  A    between atoms: _86  and  _87
REMARK   38  A    between atoms: _97  and  _99
REMARK   39  A    between atoms: _99  and  _100
REMARK   40  A    between atoms: _99  and  _102
REMARK   41  A    between atoms: _102  and  _103
REMARK   42  A    between atoms: _103  and  _104
REMARK   43  A    between atoms: _109  and  _111
REMARK   44  A    between atoms: _111  and  _112
REMARK   45  A    between atoms: _111  and  _114
REMARK   46  A    between atoms: _116  and  _118
REMARK   47  A    between atoms: _118  and  _119
REMARK   48  A    between atoms: _122  and  _124
REMARK   49  A    between atoms: _124  and  _125
REMARK   50  A    between atoms: _124  and  _127
REMARK   51  A    between atoms: _127  and  _128
REMARK   52  A    between atoms: _128  and  _129
REMARK   53  A    between atoms: _134  and  _136
REMARK   54  A    between atoms: _136  and  _137
REMARK   55  A    between atoms: _136  and  _139
REMARK   56  A    between atoms: _139  and  _140
REMARK   57  A    between atoms: _143  and  _145
REMARK   58  A    between atoms: _145  and  _146
REMARK   59  A    between atoms: _145  and  _148
REMARK   60  A    between atoms: _148  and  _149
REMARK   61  A    between atoms: _154  and  _156
REMARK   62  A    between atoms: _156  and  _157
REMARK   63  A    between atoms: _160  and  _162
REMARK   64  A    between atoms: _162  and  _163
REMARK   65  A    between atoms: _162  and  _165
REMARK   66  A    between atoms: _165  and  _166
REMARK   67  A    between atoms: _169  and  _171
REMARK   68  A    between atoms: _171  and  _172
REMARK   69  A    between atoms: _171  and  _174
REMARK   70  A    between atoms: _174  and  _175
REMARK   71  A    between atoms: _180  and  _181
REMARK   72  A    between atoms: _183  and  _185
REMARK   73  A    between atoms: _185  and  _186
REMARK   74  A    between atoms: _185  and  _188
REMARK   75  A    between atoms: _191  and  _193
REMARK   76  A    between atoms: _193  and  _194
REMARK   77  A    between atoms: _193  and  _196
REMARK   78  A    between atoms: _198  and  _200
REMARK   79  A    between atoms: _200  and  _201
REMARK   80  A    between atoms: _200  and  _203
REMARK   81  A    between atoms: _203  and  _204
REMARK   82  A    between atoms: _207  and  _209
REMARK   83  A    between atoms: _209  and  _210
REMARK   84  A    between atoms: _209  and  _212
REMARK   85  A    between atoms: _212  and  _213
REMARK   86  A    between atoms: _213  and  _214
REMARK   87  A    between atoms: _217  and  _219
REMARK   88  A    between atoms: _219  and  _220
REMARK   89  A    between atoms: _219  and  _222
REMARK   90  A    between atoms: _225  and  _227
REMARK   91  A    between atoms: _227  and  _228
REMARK   92  A    between atoms: _227  and  _230
REMARK   93  A    between atoms: _233  and  _235
REMARK   94  A    between atoms: _235  and  _236
REMARK   95  A    between atoms: _235  and  _238
REMARK   96  A    between atoms: _238  and  _239
REMARK   97  A    between atoms: _242  and  _244
REMARK   98  A    between atoms: _244  and  _245
REMARK   99  A    between atoms: _244  and  _247
REMARK  100  A    between atoms: _250  and  _252
REMARK  101  A    between atoms: _252  and  _253
REMARK  102  A    between atoms: _252  and  _255
REMARK  103  A    between atoms: _255  and  _256
REMARK  104  A    between atoms: _256  and  _257
REMARK  105  A    between atoms: _257  and  _258
REMARK  106  A    between atoms: _267  and  _269
REMARK  107  A    between atoms: _269  and  _270
REMARK  108  A    between atoms: _269  and  _272
REMARK  109  A    between atoms: _272  and  _273
REMARK  110  A    between atoms: _273  and  _274
REMARK  111  A    between atoms: _276  and  _278
REMARK  112  A    between atoms: _278  and  _279
REMARK  113  A    between atoms: _278  and  _281
REMARK  114  A    between atoms: _283  and  _285
REMARK  115  A    between atoms: _285  and  _286
REMARK  116  A    between atoms: _285  and  _288
REMARK  117  A    between atoms: _288  and  _289
REMARK  118  A    between atoms: _289  and  _290
REMARK  119  A    between atoms: _290  and  _291
REMARK  120  A    between atoms: _300  and  _302
REMARK  121  A    between atoms: _302  and  _303
REMARK  122  A    between atoms: _306  and  _308
REMARK  123  A    between atoms: _308  and  _309
REMARK  124  A    between atoms: _308  and  _311
REMARK  125  A    between atoms: _311  and  _312
REMARK  126  A    between atoms: _318  and  _320
REMARK  127  A    between atoms: _320  and  _321
REMARK  128  A    between atoms: _320  and  _323
REMARK  129  A    between atoms: _326  and  _328
REMARK  130  A    between atoms: _328  and  _329
REMARK  131  A    between atoms: _328  and  _331
REMARK  132  A    between atoms: _331  and  _332
REMARK  133  A    between atoms: _335  and  _337
REMARK  134  A    between atoms: _337  and  _338
REMARK  135  A    between atoms: _337  and  _340
REMARK  136  A    between atoms: _340  and  _341
REMARK  137  A    between atoms: _347  and  _349
REMARK  138  A    between atoms: _349  and  _350
REMARK  139  A    between atoms: _349  and  _352
REMARK  140  A    between atoms: _352  and  _353
REMARK  141  A    between atoms: _353  and  _354
REMARK  142  A    between atoms: _357  and  _359
REMARK  143  A    between atoms: _359  and  _360
REMARK  144  A    between atoms: _362  and  _364
REMARK  145  A    between atoms: _364  and  _365
REMARK  146  A    between atoms: _367  and  _369
REMARK  147  A    between atoms: _369  and  _370
REMARK  148  A    between atoms: _372  and  _374
REMARK  149  A    between atoms: _374  and  _375
REMARK  150  A    between atoms: _374  and  _377
REMARK  151  A    between atoms: _377  and  _378
REMARK  152  A    between atoms: _378  and  _379
REMARK  153  A    between atoms: _381  and  _383
REMARK  154  A    between atoms: _383  and  _384
REMARK  155  A    between atoms: _383  and  _386
REMARK  156  A    between atoms: _386  and  _387
REMARK  157  A    between atoms: _387  and  _388
REMARK  158  A    between atoms: _390  and  _392
REMARK  159  A    between atoms: _392  and  _393
REMARK  160  A    between atoms: _392  and  _395
REMARK  161  A    between atoms: _395  and  _396
REMARK  162  A    between atoms: _402  and  _404
REMARK  163  A    between atoms: _404  and  _405
REMARK  164  A    between atoms: _404  and  _407
REMARK  165  A    between atoms: _407  and  _408
REMARK  166  A    between atoms: _411  and  _413
REMARK  167  A    between atoms: _413  and  _414
REMARK  168  A    between atoms: _413  and  _416
REMARK  169  A    between atoms: _416  and  _417
REMARK  170  A    between atoms: _419  and  _421
REMARK  171  A    between atoms: _421  and  _422
REMARK  172  A    between atoms: _421  and  _424
REMARK  173  A    between atoms: _424  and  _425
REMARK  174  A    between atoms: _428  and  _430
REMARK  175  A    between atoms: _430  and  _431
REMARK  176  A    between atoms: _430  and  _433
REMARK  177  A    between atoms: _436  and  _438
REMARK  178  A    between atoms: _438  and  _439
REMARK  179  A    between atoms: _438  and  _441
REMARK  180  A    between atoms: _441  and  _442
REMARK  181  A    between atoms: _447  and  _449
REMARK  182  A    between atoms: _449  and  _450
REMARK  183  A    between atoms: _449  and  _452
REMARK  184  A    between atoms: _452  and  _453
REMARK  185  A    between atoms: _453  and  _454
REMARK  186  A    between atoms: _457  and  _459
REMARK  187  A    between atoms: _459  and  _460
REMARK  188  A    between atoms: _463  and  _465
REMARK  189  A    between atoms: _465  and  _466
REMARK  190  A    between atoms: _465  and  _468
REMARK  191  A    between atoms: _468  and  _469
REMARK  192  A    between atoms: _475  and  _477
REMARK  193  A    between atoms: _477  and  _478
REMARK  194  A    between atoms: _477  and  _480
REMARK  195  A    between atoms: _480  and  _481
REMARK  196  A    between atoms: _487  and  _489
REMARK  197  A    between atoms: _489  and  _490
REMARK  198  A    between atoms: _489  and  _492
REMARK  199  A    between atoms: _492  and  _493
REMARK  200  A    between atoms: _496  and  _498
REMARK  201  A    between atoms: _498  and  _499
REMARK  202  A    between atoms: _498  and  _501
REMARK  203  A    between atoms: _504  and  _506
REMARK  204  A    between atoms: _506  and  _507
REMARK  205  A    between atoms: _506  and  _509
REMARK  206  A    between atoms: _511  and  _513
REMARK  207  A    between atoms: _513  and  _514
REMARK  208  A    between atoms: _513  and  _516
REMARK  209  A    between atoms: _516  and  _517
REMARK  210  A    between atoms: _522  and  _524
REMARK  211  A    between atoms: _524  and  _525
REMARK  212  A    between atoms: _524  and  _527
REMARK  213  A    between atoms: _527  and  _528
REMARK  214  A    between atoms: _531  and  _533
REMARK  215  A    between atoms: _533  and  _534
REMARK  216  A    between atoms: _533  and  _536
REMARK  217  A    between atoms: _536  and  _537
REMARK  218  A    between atoms: _542  and  _544
REMARK  219  A    between atoms: _544  and  _545
REMARK  220  A    between atoms: _547  and  _549
REMARK  221  A    between atoms: _549  and  _550
REMARK  222  A    between atoms: _549  and  _552
REMARK  223  A    between atoms: _552  and  _553
REMARK  224  A    between atoms: _553  and  _554
REMARK  225  A    between atoms: _554  and  _555
REMARK  226  A    between atoms: _555  and  _556
REMARK  227  A    between atoms: _560  and  _562
REMARK  228  A    between atoms: _562  and  _563
REMARK  229  A    between atoms: _562  and  _565
REMARK  230  A    between atoms: _565  and  _566
REMARK  231  A    between atoms: _571  and  _572
REMARK  232  A    between atoms: _574  and  _576
REMARK  233  A    between atoms: _576  and  _577
REMARK  234  A    between atoms: _576  and  _579
REMARK  235  A    between atoms: _579  and  _580
REMARK                            x       y       z     vdW  Elec       q    Type
REMARK                         _______ _______ _______ _____ _____    ______ ____
ROOT
ATOM      1  O   HOH     1      21.648  41.053   3.680  0.00  0.00    +0.000 OA
ENDROOT
TORSDOF 0
REMARK  Name = ../refined-set-2016/1nq7/1nq7_pocket.pdb
REMARK  235 active torsions:
REMARK  status: ('A' for Active; 'I' for Inactive)
REMARK    1  A    between atoms: _1  and  _3
REMARK    2  A    between atoms: _3  and  _4
REMARK    3  A    between atoms: _3  and  _6
REMARK    4  A    between atoms: _6  and  _7
REMARK    5  A    between atoms: _12  and  _14
REMARK    6  A    between atoms: _14  and  _15
REMARK    7  A    between atoms: _14  and  _17
REMARK    8  A    between atoms: _17  and  _18
REMARK    9  A    between atoms: _21  and  _23
REMARK   10  A    between atoms: _23  and  _24
REMARK   11  A    between atoms: _23  and  _26
REMARK   12  A    between atoms: _28  and  _30
REMARK   13  A    between atoms: _30  and  _31
REMARK   14  A    between atoms: _30  and  _33
REMARK   15  A    between atoms: _33  and  _34
REMARK   16  A    between atoms: _34  and  _35
REMARK   17  A    between atoms: _40  and  _42
REMARK   18  A    between atoms: _42  and  _43
REMARK   19  A    between atoms: _42  and  _45
REMARK   20  A    between atoms: _45  and  _46
REMARK   21  A    between atoms: _51  and  _52
REMARK   22  A    between atoms: _54  and  _56
REMARK   23  A    between atoms: _56  and  _57
REMARK   24  A    between atoms: _56  and  _59
REMARK   25  A    between atoms: _59  and  _60
REMARK   26  A    between atoms: _63  and  _65
REMARK   27  A    between atoms: _65  and  _66
REMARK   28  A    between atoms: _65  and  _68
REMARK   29  A    between atoms: _68  and  _69
REMARK   30  A    between atoms: _72  and  _74
REMARK   31  A    between atoms: _74  and  _75
REMARK   32  A    between atoms: _74  and  _77
REMARK   33  A    between atoms: _77  and  _78
REMARK   34  A    between atoms: _81  and  _83
REMARK   35  A    between atoms: _83  and  _84
REMARK   36  A    between atoms: _83  and  _86
REMARK   37  A    between atoms: _86  and  _87
REMARK   38  A    between atoms: _97  and  _99
REMARK   39  A    between atoms: _99  and  _100
REMARK   40  A    between atoms: _99  and  _102
REMARK   41  A    between atoms: _102  and  _103
REMARK   42  A    between atoms: _103  and  _104
REMARK   43  A    between atoms: _109  and  _111
REMARK   44  A    between atoms: _111  and  _112
REMARK   45  A    between atoms: _111  and  _114
REMARK   46  A    between atoms: _116  and  _118
REMARK   47  A    between atoms: _118  and  _119
REMARK   48  A    between atoms: _122  and  _124
REMARK   49  A    between atoms: _124  and  _125
REMARK   50  A    between atoms: _124  and  _127
REMARK   51  A    between atoms: _127  and  _128
REMARK   52  A    between atoms: _128  and  _129
REMARK   53  A    between atoms: _134  and  _136
REMARK   54  A    between atoms: _136  and  _137
REMARK   55  A    between atoms: _136  and  _139
REMARK   56  A    between atoms: _139  and  _140
REMARK   57  A    between atoms: _143  and  _145
REMARK   58  A    between atoms: _145  and  _146
REMARK   59  A    between atoms: _145  and  _148
REMARK   60  A    between atoms: _148  and  _149
REMARK   61  A    between atoms: _154  and  _156
REMARK   62  A    between atoms: _156  and  _157
REMARK   63  A    between atoms: _160  and  _162
REMARK   64  A    between atoms: _162  and  _163
REMARK   65  A    between atoms: _162  and  _165
REMARK   66  A    between atoms: _165  and  _166
REMARK   67  A    between atoms: _169  and  _171
REMARK   68  A    between atoms: _171  and  _172
REMARK   69  A    between atoms: _171  and  _174
REMARK   70  A    between atoms: _174  and  _175
REMARK   71  A    between atoms: _180  and  _181
REMARK   72  A    between atoms: _183  and  _185
REMARK   73  A    between atoms: _185  and  _186
REMARK   74  A    between atoms: _185  and  _188
REMARK   75  A    between atoms: _191  and  _193
REMARK   76  A    between atoms: _193  and  _194
REMARK   77  A    between atoms: _193  and  _196
REMARK   78  A    between atoms: _198  and  _200
REMARK   79  A    between atoms: _200  and  _201
REMARK   80  A    between atoms: _200  and  _203
REMARK   81  A    between atoms: _203  and  _204
REMARK   82  A    between atoms: _207  and  _209
REMARK   83  A    between atoms: _209  and  _210
REMARK   84  A    between atoms: _209  and  _212
REMARK   85  A    between atoms: _212  and  _213
REMARK   86  A    between atoms: _213  and  _214
REMARK   87  A    between atoms: _217  and  _219
REMARK   88  A    between atoms: _219  and  _220
REMARK   89  A    between atoms: _219  and  _222
REMARK   90  A    between atoms: _225  and  _227
REMARK   91  A    between atoms: _227  and  _228
REMARK   92  A    between atoms: _227  and  _230
REMARK   93  A    between atoms: _233  and  _235
REMARK   94  A    between atoms: _235  and  _236
REMARK   95  A    between atoms: _235  and  _238
REMARK   96  A    between atoms: _238  and  _239
REMARK   97  A    between atoms: _242  and  _244
REMARK   98  A    between atoms: _244  and  _245
REMARK   99  A    between atoms: _244  and  _247
REMARK  100  A    between atoms: _250  and  _252
REMARK  101  A    between atoms: _252  and  _253
REMARK  102  A    between atoms: _252  and  _255
REMARK  103  A    between atoms: _255  and  _256
REMARK  104  A    between atoms: _256  and  _257
REMARK  105  A    between atoms: _257  and  _258
REMARK  106  A    between atoms: _267  and  _269
REMARK  107  A    between atoms: _269  and  _270
REMARK  108  A    between atoms: _269  and  _272
REMARK  109  A    between atoms: _272  and  _273
REMARK  110  A    between atoms: _273  and  _274
REMARK  111  A    between atoms: _276  and  _278
REMARK  112  A    between atoms: _278  and  _279
REMARK  113  A    between atoms: _278  and  _281
REMARK  114  A    between atoms: _283  and  _285
REMARK  115  A    between atoms: _285  and  _286
REMARK  116  A    between atoms: _285  and  _288
REMARK  117  A    between atoms: _288  and  _289
REMARK  118  A    between atoms: _289  and  _290
REMARK  119  A    between atoms: _290  and  _291
REMARK  120  A    between atoms: _300  and  _302
REMARK  121  A    between atoms: _302  and  _303
REMARK  122  A    between atoms: _306  and  _308
REMARK  123  A    between atoms: _308  and  _309
REMARK  124  A    between atoms: _308  and  _311
REMARK  125  A    between atoms: _311  and  _312
REMARK  126  A    between atoms: _318  and  _320
REMARK  127  A    between atoms: _320  and  _321
REMARK  128  A    between atoms: _320  and  _323
REMARK  129  A    between atoms: _326  and  _328
REMARK  130  A    between atoms: _328  and  _329
REMARK  131  A    between atoms: _328  and  _331
REMARK  132  A    between atoms: _331  and  _332
REMARK  133  A    between atoms: _335  and  _337
REMARK  134  A    between atoms: _337  and  _338
REMARK  135  A    between atoms: _337  and  _340
REMARK  136  A    between atoms: _340  and  _341
REMARK  137  A    between atoms: _347  and  _349
REMARK  138  A    between atoms: _349  and  _350
REMARK  139  A    between atoms: _349  and  _352
REMARK  140  A    between atoms: _352  and  _353
REMARK  141  A    between atoms: _353  and  _354
REMARK  142  A    between atoms: _357  and  _359
REMARK  143  A    between atoms: _359  and  _360
REMARK  144  A    between atoms: _362  and  _364
REMARK  145  A    between atoms: _364  and  _365
REMARK  146  A    between atoms: _367  and  _369
REMARK  147  A    between atoms: _369  and  _370
REMARK  148  A    between atoms: _372  and  _374
REMARK  149  A    between atoms: _374  and  _375
REMARK  150  A    between atoms: _374  and  _377
REMARK  151  A    between atoms: _377  and  _378
REMARK  152  A    between atoms: _378  and  _379
REMARK  153  A    between atoms: _381  and  _383
REMARK  154  A    between atoms: _383  and  _384
REMARK  155  A    between atoms: _383  and  _386
REMARK  156  A    between atoms: _386  and  _387
REMARK  157  A    between atoms: _387  and  _388
REMARK  158  A    between atoms: _390  and  _392
REMARK  159  A    between atoms: _392  and  _393
REMARK  160  A    between atoms: _392  and  _395
REMARK  161  A    between atoms: _395  and  _396
REMARK  162  A    between atoms: _402  and  _404
REMARK  163  A    between atoms: _404  and  _405
REMARK  164  A    between atoms: _404  and  _407
REMARK  165  A    between atoms: _407  and  _408
REMARK  166  A    between atoms: _411  and  _413
REMARK  167  A    between atoms: _413  and  _414
REMARK  168  A    between atoms: _413  and  _416
REMARK  169  A    between atoms: _416  and  _417
REMARK  170  A    between atoms: _419  and  _421
REMARK  171  A    between atoms: _421  and  _422
REMARK  172  A    between atoms: _421  and  _424
REMARK  173  A    between atoms: _424  and  _425
REMARK  174  A    between atoms: _428  and  _430
REMARK  175  A    between atoms: _430  and  _431
REMARK  176  A    between atoms: _430  and  _433
REMARK  177  A    between atoms: _436  and  _438
REMARK  178  A    between atoms: _438  and  _439
REMARK  179  A    between atoms: _438  and  _441
REMARK  180  A    between atoms: _441  and  _442
REMARK  181  A    between atoms: _447  and  _449
REMARK  182  A    between atoms: _449  and  _450
REMARK  183  A    between atoms: _449  and  _452
REMARK  184  A    between atoms: _452  and  _453
REMARK  185  A    between atoms: _453  and  _454
REMARK  186  A    between atoms: _457  and  _459
REMARK  187  A    between atoms: _459  and  _460
REMARK  188  A    between atoms: _463  and  _465
REMARK  189  A    between atoms: _465  and  _466
REMARK  190  A    between atoms: _465  and  _468
REMARK  191  A    between atoms: _468  and  _469
REMARK  192  A    between atoms: _475  and  _477
REMARK  193  A    between atoms: _477  and  _478
REMARK  194  A    between atoms: _477  and  _480
REMARK  195  A    between atoms: _480  and  _481
REMARK  196  A    between atoms: _487  and  _489
REMARK  197  A    between atoms: _489  and  _490
REMARK  198  A    between atoms: _489  and  _492
REMARK  199  A    between atoms: _492  and  _493
REMARK  200  A    between atoms: _496  and  _498
REMARK  201  A    between atoms: _498  and  _499
REMARK  202  A    between atoms: _498  and  _501
REMARK  203  A    between atoms: _504  and  _506
REMARK  204  A    between atoms: _506  and  _507
REMARK  205  A    between atoms: _506  and  _509
REMARK  206  A    between atoms: _511  and  _513
REMARK  207  A    between atoms: _513  and  _514
REMARK  208  A    between atoms: _513  and  _516
REMARK  209  A    between atoms: _516  and  _517
REMARK  210  A    between atoms: _522  and  _524
REMARK  211  A    between atoms: _524  and  _525
REMARK  212  A    between atoms: _524  and  _527
REMARK  213  A    between atoms: _527  and  _528
REMARK  214  A    between atoms: _531  and  _533
REMARK  215  A    between atoms: _533  and  _534
REMARK  216  A    between atoms: _533  and  _536
REMARK  217  A    between atoms: _536  and  _537
REMARK  218  A    between atoms: _542  and  _544
REMARK  219  A    between atoms: _544  and  _545
REMARK  220  A    between atoms: _547  and  _549
REMARK  221  A    between atoms: _549  and  _550
REMARK  222  A    between atoms: _549  and  _552
REMARK  223  A    between atoms: _552  and  _553
REMARK  224  A    between atoms: _553  and  _554
REMARK  225  A    between atoms: _554  and  _555
REMARK  226  A    between atoms: _555  and  _556
REMARK  227  A    between atoms: _560  and  _562
REMARK  228  A    between atoms: _562  and  _563
REMARK  229  A    between atoms: _562  and  _565
REMARK  230  A    between atoms: _565  and  _566
REMARK  231  A    between atoms: _571  and  _572
REMARK  232  A    between atoms: _574  and  _576
REMARK  233  A    between atoms: _576  and  _577
REMARK  234  A    between atoms: _576  and  _579
REMARK  235  A    between atoms: _579  and  _580
REMARK                            x       y       z     vdW  Elec       q    Type
REMARK                         _______ _______ _______ _____ _____    ______ ____
ROOT
ATOM      1  O   HOH     1      14.727  24.235   4.079  0.00  0.00    +0.000 OA
ENDROOT
TORSDOF 0
REMARK  Name = ../refined-set-2016/1nq7/1nq7_pocket.pdb
REMARK  235 active torsions:
REMARK  status: ('A' for Active; 'I' for Inactive)
REMARK    1  A    between atoms: _1  and  _3
REMARK    2  A    between atoms: _3  and  _4
REMARK    3  A    between atoms: _3  and  _6
REMARK    4  A    between atoms: _6  and  _7
REMARK    5  A    between atoms: _12  and  _14
REMARK    6  A    between atoms: _14  and  _15
REMARK    7  A    between atoms: _14  and  _17
REMARK    8  A    between atoms: _17  and  _18
REMARK    9  A    between atoms: _21  and  _23
REMARK   10  A    between atoms: _23  and  _24
REMARK   11  A    between atoms: _23  and  _26
REMARK   12  A    between atoms: _28  and  _30
REMARK   13  A    between atoms: _30  and  _31
REMARK   14  A    between atoms: _30  and  _33
REMARK   15  A    between atoms: _33  and  _34
REMARK   16  A    between atoms: _34  and  _35
REMARK   17  A    between atoms: _40  and  _42
REMARK   18  A    between atoms: _42  and  _43
REMARK   19  A    between atoms: _42  and  _45
REMARK   20  A    between atoms: _45  and  _46
REMARK   21  A    between atoms: _51  and  _52
REMARK   22  A    between atoms: _54  and  _56
REMARK   23  A    between atoms: _56  and  _57
REMARK   24  A    between atoms: _56  and  _59
REMARK   25  A    between atoms: _59  and  _60
REMARK   26  A    between atoms: _63  and  _65
REMARK   27  A    between atoms: _65  and  _66
REMARK   28  A    between atoms: _65  and  _68
REMARK   29  A    between atoms: _68  and  _69
REMARK   30  A    between atoms: _72  and  _74
REMARK   31  A    between atoms: _74  and  _75
REMARK   32  A    between atoms: _74  and  _77
REMARK   33  A    between atoms: _77  and  _78
REMARK   34  A    between atoms: _81  and  _83
REMARK   35  A    between atoms: _83  and  _84
REMARK   36  A    between atoms: _83  and  _86
REMARK   37  A    between atoms: _86  and  _87
REMARK   38  A    between atoms: _97  and  _99
REMARK   39  A    between atoms: _99  and  _100
REMARK   40  A    between atoms: _99  and  _102
REMARK   41  A    between atoms: _102  and  _103
REMARK   42  A    between atoms: _103  and  _104
REMARK   43  A    between atoms: _109  and  _111
REMARK   44  A    between atoms: _111  and  _112
REMARK   45  A    between atoms: _111  and  _114
REMARK   46  A    between atoms: _116  and  _118
REMARK   47  A    between atoms: _118  and  _119
REMARK   48  A    between atoms: _122  and  _124
REMARK   49  A    between atoms: _124  and  _125
REMARK   50  A    between atoms: _124  and  _127
REMARK   51  A    between atoms: _127  and  _128
REMARK   52  A    between atoms: _128  and  _129
REMARK   53  A    between atoms: _134  and  _136
REMARK   54  A    between atoms: _136  and  _137
REMARK   55  A    between atoms: _136  and  _139
REMARK   56  A    between atoms: _139  and  _140
REMARK   57  A    between atoms: _143  and  _145
REMARK   58  A    between atoms: _145  and  _146
REMARK   59  A    between atoms: _145  and  _148
REMARK   60  A    between atoms: _148  and  _149
REMARK   61  A    between atoms: _154  and  _156
REMARK   62  A    between atoms: _156  and  _157
REMARK   63  A    between atoms: _160  and  _162
REMARK   64  A    between atoms: _162  and  _163
REMARK   65  A    between atoms: _162  and  _165
REMARK   66  A    between atoms: _165  and  _166
REMARK   67  A    between atoms: _169  and  _171
REMARK   68  A    between atoms: _171  and  _172
REMARK   69  A    between atoms: _171  and  _174
REMARK   70  A    between atoms: _174  and  _175
REMARK   71  A    between atoms: _180  and  _181
REMARK   72  A    between atoms: _183  and  _185
REMARK   73  A    between atoms: _185  and  _186
REMARK   74  A    between atoms: _185  and  _188
REMARK   75  A    between atoms: _191  and  _193
REMARK   76  A    between atoms: _193  and  _194
REMARK   77  A    between atoms: _193  and  _196
REMARK   78  A    between atoms: _198  and  _200
REMARK   79  A    between atoms: _200  and  _201
REMARK   80  A    between atoms: _200  and  _203
REMARK   81  A    between atoms: _203  and  _204
REMARK   82  A    between atoms: _207  and  _209
REMARK   83  A    between atoms: _209  and  _210
REMARK   84  A    between atoms: _209  and  _212
REMARK   85  A    between atoms: _212  and  _213
REMARK   86  A    between atoms: _213  and  _214
REMARK   87  A    between atoms: _217  and  _219
REMARK   88  A    between atoms: _219  and  _220
REMARK   89  A    between atoms: _219  and  _222
REMARK   90  A    between atoms: _225  and  _227
REMARK   91  A    between atoms: _227  and  _228
REMARK   92  A    between atoms: _227  and  _230
REMARK   93  A    between atoms: _233  and  _235
REMARK   94  A    between atoms: _235  and  _236
REMARK   95  A    between atoms: _235  and  _238
REMARK   96  A    between atoms: _238  and  _239
REMARK   97  A    between atoms: _242  and  _244
REMARK   98  A    between atoms: _244  and  _245
REMARK   99  A    between atoms: _244  and  _247
REMARK  100  A    between atoms: _250  and  _252
REMARK  101  A    between atoms: _252  and  _253
REMARK  102  A    between atoms: _252  and  _255
REMARK  103  A    between atoms: _255  and  _256
REMARK  104  A    between atoms: _256  and  _257
REMARK  105  A    between atoms: _257  and  _258
REMARK  106  A    between atoms: _267  and  _269
REMARK  107  A    between atoms: _269  and  _270
REMARK  108  A    between atoms: _269  and  _272
REMARK  109  A    between atoms: _272  and  _273
REMARK  110  A    between atoms: _273  and  _274
REMARK  111  A    between atoms: _276  and  _278
REMARK  112  A    between atoms: _278  and  _279
REMARK  113  A    between atoms: _278  and  _281
REMARK  114  A    between atoms: _283  and  _285
REMARK  115  A    between atoms: _285  and  _286
REMARK  116  A    between atoms: _285  and  _288
REMARK  117  A    between atoms: _288  and  _289
REMARK  118  A    between atoms: _289  and  _290
REMARK  119  A    between atoms: _290  and  _291
REMARK  120  A    between atoms: _300  and  _302
REMARK  121  A    between atoms: _302  and  _303
REMARK  122  A    between atoms: _306  and  _308
REMARK  123  A    between atoms: _308  and  _309
REMARK  124  A    between atoms: _308  and  _311
REMARK  125  A    between atoms: _311  and  _312
REMARK  126  A    between atoms: _318  and  _320
REMARK  127  A    between atoms: _320  and  _321
REMARK  128  A    between atoms: _320  and  _323
REMARK  129  A    between atoms: _326  and  _328
REMARK  130  A    between atoms: _328  and  _329
REMARK  131  A    between atoms: _328  and  _331
REMARK  132  A    between atoms: _331  and  _332
REMARK  133  A    between atoms: _335  and  _337
REMARK  134  A    between atoms: _337  and  _338
REMARK  135  A    between atoms: _337  and  _340
REMARK  136  A    between atoms: _340  and  _341
REMARK  137  A    between atoms: _347  and  _349
REMARK  138  A    between atoms: _349  and  _350
REMARK  139  A    between atoms: _349  and  _352
REMARK  140  A    between atoms: _352  and  _353
REMARK  141  A    between atoms: _353  and  _354
REMARK  142  A    between atoms: _357  and  _359
REMARK  143  A    between atoms: _359  and  _360
REMARK  144  A    between atoms: _362  and  _364
REMARK  145  A    between atoms: _364  and  _365
REMARK  146  A    between atoms: _367  and  _369
REMARK  147  A    between atoms: _369  and  _370
REMARK  148  A    between atoms: _372  and  _374
REMARK  149  A    between atoms: _374  and  _375
REMARK  150  A    between atoms: _374  and  _377
REMARK  151  A    between atoms: _377  and  _378
REMARK  152  A    between atoms: _378  and  _379
REMARK  153  A    between atoms: _381  and  _383
REMARK  154  A    between atoms: _383  and  _384
REMARK  155  A    between atoms: _383  and  _386
REMARK  156  A    between atoms: _386  and  _387
REMARK  157  A    between atoms: _387  and  _388
REMARK  158  A    between atoms: _390  and  _392
REMARK  159  A    between atoms: _392  and  _393
REMARK  160  A    between atoms: _392  and  _395
REMARK  161  A    between atoms: _395  and  _396
REMARK  162  A    between atoms: _402  and  _404
REMARK  163  A    between atoms: _404  and  _405
REMARK  164  A    between atoms: _404  and  _407
REMARK  165  A    between atoms: _407  and  _408
REMARK  166  A    between atoms: _411  and  _413
REMARK  167  A    between atoms: _413  and  _414
REMARK  168  A    between atoms: _413  and  _416
REMARK  169  A    between atoms: _416  and  _417
REMARK  170  A    between atoms: _419  and  _421
REMARK  171  A    between atoms: _421  and  _422
REMARK  172  A    between atoms: _421  and  _424
REMARK  173  A    between atoms: _424  and  _425
REMARK  174  A    between atoms: _428  and  _430
REMARK  175  A    between atoms: _430  and  _431
REMARK  176  A    between atoms: _430  and  _433
REMARK  177  A    between atoms: _436  and  _438
REMARK  178  A    between atoms: _438  and  _439
REMARK  179  A    between atoms: _438  and  _441
REMARK  180  A    between atoms: _441  and  _442
REMARK  181  A    between atoms: _447  and  _449
REMARK  182  A    between atoms: _449  and  _450
REMARK  183  A    between atoms: _449  and  _452
REMARK  184  A    between atoms: _452  and  _453
REMARK  185  A    between atoms: _453  and  _454
REMARK  186  A    between atoms: _457  and  _459
REMARK  187  A    between atoms: _459  and  _460
REMARK  188  A    between atoms: _463  and  _465
REMARK  189  A    between atoms: _465  and  _466
REMARK  190  A    between atoms: _465  and  _468
REMARK  191  A    between atoms: _468  and  _469
REMARK  192  A    between atoms: _475  and  _477
REMARK  193  A    between atoms: _477  and  _478
REMARK  194  A    between atoms: _477  and  _480
REMARK  195  A    between atoms: _480  and  _481
REMARK  196  A    between atoms: _487  and  _489
REMARK  197  A    between atoms: _489  and  _490
REMARK  198  A    between atoms: _489  and  _492
REMARK  199  A    between atoms: _492  and  _493
REMARK  200  A    between atoms: _496  and  _498
REMARK  201  A    between atoms: _498  and  _499
REMARK  202  A    between atoms: _498  and  _501
REMARK  203  A    between atoms: _504  and  _506
REMARK  204  A    between atoms: _506  and  _507
REMARK  205  A    between atoms: _506  and  _509
REMARK  206  A    between atoms: _511  and  _513
REMARK  207  A    between atoms: _513  and  _514
REMARK  208  A    between atoms: _513  and  _516
REMARK  209  A    between atoms: _516  and  _517
REMARK  210  A    between atoms: _522  and  _524
REMARK  211  A    between atoms: _524  and  _525
REMARK  212  A    between atoms: _524  and  _527
REMARK  213  A    between atoms: _527  and  _528
REMARK  214  A    between atoms: _531  and  _533
REMARK  215  A    between atoms: _533  and  _534
REMARK  216  A    between atoms: _533  and  _536
REMARK  217  A    between atoms: _536  and  _537
REMARK  218  A    between atoms: _542  and  _544
REMARK  219  A    between atoms: _544  and  _545
REMARK  220  A    between atoms: _547  and  _549
REMARK  221  A    between atoms: _549  and  _550
REMARK  222  A    between atoms: _549  and  _552
REMARK  223  A    between atoms: _552  and  _553
REMARK  224  A    between atoms: _553  and  _554
REMARK  225  A    between atoms: _554  and  _555
REMARK  226  A    between atoms: _555  and  _556
REMARK  227  A    between atoms: _560  and  _562
REMARK  228  A    between atoms: _562  and  _563
REMARK  229  A    between atoms: _562  and  _565
REMARK  230  A    between atoms: _565  and  _566
REMARK  231  A    between atoms: _571  and  _572
REMARK  232  A    between atoms: _574  and  _576
REMARK  233  A    between atoms: _576  and  _577
REMARK  234  A    between atoms: _576  and  _579
REMARK  235  A    between atoms: _579  and  _580
REMARK                            x       y       z     vdW  Elec       q    Type
REMARK                         _______ _______ _______ _____ _____    ______ ____
ROOT
ATOM      1  O   HOH     1      31.086  28.547   7.631  0.00  0.00    +0.000 OA
ENDROOT
TORSDOF 0
REMARK  Name = ../refined-set-2016/1nq7/1nq7_pocket.pdb
REMARK  235 active torsions:
REMARK  status: ('A' for Active; 'I' for Inactive)
REMARK    1  A    between atoms: _1  and  _3
REMARK    2  A    between atoms: _3  and  _4
REMARK    3  A    between atoms: _3  and  _6
REMARK    4  A    between atoms: _6  and  _7
REMARK    5  A    between atoms: _12  and  _14
REMARK    6  A    between atoms: _14  and  _15
REMARK    7  A    between atoms: _14  and  _17
REMARK    8  A    between atoms: _17  and  _18
REMARK    9  A    between atoms: _21  and  _23
REMARK   10  A    between atoms: _23  and  _24
REMARK   11  A    between atoms: _23  and  _26
REMARK   12  A    between atoms: _28  and  _30
REMARK   13  A    between atoms: _30  and  _31
REMARK   14  A    between atoms: _30  and  _33
REMARK   15  A    between atoms: _33  and  _34
REMARK   16  A    between atoms: _34  and  _35
REMARK   17  A    between atoms: _40  and  _42
REMARK   18  A    between atoms: _42  and  _43
REMARK   19  A    between atoms: _42  and  _45
REMARK   20  A    between atoms: _45  and  _46
REMARK   21  A    between atoms: _51  and  _52
REMARK   22  A    between atoms: _54  and  _56
REMARK   23  A    between atoms: _56  and  _57
REMARK   24  A    between atoms: _56  and  _59
REMARK   25  A    between atoms: _59  and  _60
REMARK   26  A    between atoms: _63  and  _65
REMARK   27  A    between atoms: _65  and  _66
REMARK   28  A    between atoms: _65  and  _68
REMARK   29  A    between atoms: _68  and  _69
REMARK   30  A    between atoms: _72  and  _74
REMARK   31  A    between atoms: _74  and  _75
REMARK   32  A    between atoms: _74  and  _77
REMARK   33  A    between atoms: _77  and  _78
REMARK   34  A    between atoms: _81  and  _83
REMARK   35  A    between atoms: _83  and  _84
REMARK   36  A    between atoms: _83  and  _86
REMARK   37  A    between atoms: _86  and  _87
REMARK   38  A    between atoms: _97  and  _99
REMARK   39  A    between atoms: _99  and  _100
REMARK   40  A    between atoms: _99  and  _102
REMARK   41  A    between atoms: _102  and  _103
REMARK   42  A    between atoms: _103  and  _104
REMARK   43  A    between atoms: _109  and  _111
REMARK   44  A    between atoms: _111  and  _112
REMARK   45  A    between atoms: _111  and  _114
REMARK   46  A    between atoms: _116  and  _118
REMARK   47  A    between atoms: _118  and  _119
REMARK   48  A    between atoms: _122  and  _124
REMARK   49  A    between atoms: _124  and  _125
REMARK   50  A    between atoms: _124  and  _127
REMARK   51  A    between atoms: _127  and  _128
REMARK   52  A    between atoms: _128  and  _129
REMARK   53  A    between atoms: _134  and  _136
REMARK   54  A    between atoms: _136  and  _137
REMARK   55  A    between atoms: _136  and  _139
REMARK   56  A    between atoms: _139  and  _140
REMARK   57  A    between atoms: _143  and  _145
REMARK   58  A    between atoms: _145  and  _146
REMARK   59  A    between atoms: _145  and  _148
REMARK   60  A    between atoms: _148  and  _149
REMARK   61  A    between atoms: _154  and  _156
REMARK   62  A    between atoms: _156  and  _157
REMARK   63  A    between atoms: _160  and  _162
REMARK   64  A    between atoms: _162  and  _163
REMARK   65  A    between atoms: _162  and  _165
REMARK   66  A    between atoms: _165  and  _166
REMARK   67  A    between atoms: _169  and  _171
REMARK   68  A    between atoms: _171  and  _172
REMARK   69  A    between atoms: _171  and  _174
REMARK   70  A    between atoms: _174  and  _175
REMARK   71  A    between atoms: _180  and  _181
REMARK   72  A    between atoms: _183  and  _185
REMARK   73  A    between atoms: _185  and  _186
REMARK   74  A    between atoms: _185  and  _188
REMARK   75  A    between atoms: _191  and  _193
REMARK   76  A    between atoms: _193  and  _194
REMARK   77  A    between atoms: _193  and  _196
REMARK   78  A    between atoms: _198  and  _200
REMARK   79  A    between atoms: _200  and  _201
REMARK   80  A    between atoms: _200  and  _203
REMARK   81  A    between atoms: _203  and  _204
REMARK   82  A    between atoms: _207  and  _209
REMARK   83  A    between atoms: _209  and  _210
REMARK   84  A    between atoms: _209  and  _212
REMARK   85  A    between atoms: _212  and  _213
REMARK   86  A    between atoms: _213  and  _214
REMARK   87  A    between atoms: _217  and  _219
REMARK   88  A    between atoms: _219  and  _220
REMARK   89  A    between atoms: _219  and  _222
REMARK   90  A    between atoms: _225  and  _227
REMARK   91  A    between atoms: _227  and  _228
REMARK   92  A    between atoms: _227  and  _230
REMARK   93  A    between atoms: _233  and  _235
REMARK   94  A    between atoms: _235  and  _236
REMARK   95  A    between atoms: _235  and  _238
REMARK   96  A    between atoms: _238  and  _239
REMARK   97  A    between atoms: _242  and  _244
REMARK   98  A    between atoms: _244  and  _245
REMARK   99  A    between atoms: _244  and  _247
REMARK  100  A    between atoms: _250  and  _252
REMARK  101  A    between atoms: _252  and  _253
REMARK  102  A    between atoms: _252  and  _255
REMARK  103  A    between atoms: _255  and  _256
REMARK  104  A    between atoms: _256  and  _257
REMARK  105  A    between atoms: _257  and  _258
REMARK  106  A    between atoms: _267  and  _269
REMARK  107  A    between atoms: _269  and  _270
REMARK  108  A    between atoms: _269  and  _272
REMARK  109  A    between atoms: _272  and  _273
REMARK  110  A    between atoms: _273  and  _274
REMARK  111  A    between atoms: _276  and  _278
REMARK  112  A    between atoms: _278  and  _279
REMARK  113  A    between atoms: _278  and  _281
REMARK  114  A    between atoms: _283  and  _285
REMARK  115  A    between atoms: _285  and  _286
REMARK  116  A    between atoms: _285  and  _288
REMARK  117  A    between atoms: _288  and  _289
REMARK  118  A    between atoms: _289  and  _290
REMARK  119  A    between atoms: _290  and  _291
REMARK  120  A    between atoms: _300  and  _302
REMARK  121  A    between atoms: _302  and  _303
REMARK  122  A    between atoms: _306  and  _308
REMARK  123  A    between atoms: _308  and  _309
REMARK  124  A    between atoms: _308  and  _311
REMARK  125  A    between atoms: _311  and  _312
REMARK  126  A    between atoms: _318  and  _320
REMARK  127  A    between atoms: _320  and  _321
REMARK  128  A    between atoms: _320  and  _323
REMARK  129  A    between atoms: _326  and  _328
REMARK  130  A    between atoms: _328  and  _329
REMARK  131  A    between atoms: _328  and  _331
REMARK  132  A    between atoms: _331  and  _332
REMARK  133  A    between atoms: _335  and  _337
REMARK  134  A    between atoms: _337  and  _338
REMARK  135  A    between atoms: _337  and  _340
REMARK  136  A    between atoms: _340  and  _341
REMARK  137  A    between atoms: _347  and  _349
REMARK  138  A    between atoms: _349  and  _350
REMARK  139  A    between atoms: _349  and  _352
REMARK  140  A    between atoms: _352  and  _353
REMARK  141  A    between atoms: _353  and  _354
REMARK  142  A    between atoms: _357  and  _359
REMARK  143  A    between atoms: _359  and  _360
REMARK  144  A    between atoms: _362  and  _364
REMARK  145  A    between atoms: _364  and  _365
REMARK  146  A    between atoms: _367  and  _369
REMARK  147  A    between atoms: _369  and  _370
REMARK  148  A    between atoms: _372  and  _374
REMARK  149  A    between atoms: _374  and  _375
REMARK  150  A    between atoms: _374  and  _377
REMARK  151  A    between atoms: _377  and  _378
REMARK  152  A    between atoms: _378  and  _379
REMARK  153  A    between atoms: _381  and  _383
REMARK  154  A    between atoms: _383  and  _384
REMARK  155  A    between atoms: _383  and  _386
REMARK  156  A    between atoms: _386  and  _387
REMARK  157  A    between atoms: _387  and  _388
REMARK  158  A    between atoms: _390  and  _392
REMARK  159  A    between atoms: _392  and  _393
REMARK  160  A    between atoms: _392  and  _395
REMARK  161  A    between atoms: _395  and  _396
REMARK  162  A    between atoms: _402  and  _404
REMARK  163  A    between atoms: _404  and  _405
REMARK  164  A    between atoms: _404  and  _407
REMARK  165  A    between atoms: _407  and  _408
REMARK  166  A    between atoms: _411  and  _413
REMARK  167  A    between atoms: _413  and  _414
REMARK  168  A    between atoms: _413  and  _416
REMARK  169  A    between atoms: _416  and  _417
REMARK  170  A    between atoms: _419  and  _421
REMARK  171  A    between atoms: _421  and  _422
REMARK  172  A    between atoms: _421  and  _424
REMARK  173  A    between atoms: _424  and  _425
REMARK  174  A    between atoms: _428  and  _430
REMARK  175  A    between atoms: _430  and  _431
REMARK  176  A    between atoms: _430  and  _433
REMARK  177  A    between atoms: _436  and  _438
REMARK  178  A    between atoms: _438  and  _439
REMARK  179  A    between atoms: _438  and  _441
REMARK  180  A    between atoms: _441  and  _442
REMARK  181  A    between atoms: _447  and  _449
REMARK  182  A    between atoms: _449  and  _450
REMARK  183  A    between atoms: _449  and  _452
REMARK  184  A    between atoms: _452  and  _453
REMARK  185  A    between atoms: _453  and  _454
REMARK  186  A    between atoms: _457  and  _459
REMARK  187  A    between atoms: _459  and  _460
REMARK  188  A    between atoms: _463  and  _465
REMARK  189  A    between atoms: _465  and  _466
REMARK  190  A    between atoms: _465  and  _468
REMARK  191  A    between atoms: _468  and  _469
REMARK  192  A    between atoms: _475  and  _477
REMARK  193  A    between atoms: _477  and  _478
REMARK  194  A    between atoms: _477  and  _480
REMARK  195  A    between atoms: _480  and  _481
REMARK  196  A    between atoms: _487  and  _489
REMARK  197  A    between atoms: _489  and  _490
REMARK  198  A    between atoms: _489  and  _492
REMARK  199  A    between atoms: _492  and  _493
REMARK  200  A    between atoms: _496  and  _498
REMARK  201  A    between atoms: _498  and  _499
REMARK  202  A    between atoms: _498  and  _501
REMARK  203  A    between atoms: _504  and  _506
REMARK  204  A    between atoms: _506  and  _507
REMARK  205  A    between atoms: _506  and  _509
REMARK  206  A    between atoms: _511  and  _513
REMARK  207  A    between atoms: _513  and  _514
REMARK  208  A    between atoms: _513  and  _516
REMARK  209  A    between atoms: _516  and  _517
REMARK  210  A    between atoms: _522  and  _524
REMARK  211  A    between atoms: _524  and  _525
REMARK  212  A    between atoms: _524  and  _527
REMARK  213  A    between atoms: _527  and  _528
REMARK  214  A    between atoms: _531  and  _533
REMARK  215  A    between atoms: _533  and  _534
REMARK  216  A    between atoms: _533  and  _536
REMARK  217  A    between atoms: _536  and  _537
REMARK  218  A    between atoms: _542  and  _544
REMARK  219  A    between atoms: _544  and  _545
REMARK  220  A    between atoms: _547  and  _549
REMARK  221  A    between atoms: _549  and  _550
REMARK  222  A    between atoms: _549  and  _552
REMARK  223  A    between atoms: _552  and  _553
REMARK  224  A    between atoms: _553  and  _554
REMARK  225  A    between atoms: _554  and  _555
REMARK  226  A    between atoms: _555  and  _556
REMARK  227  A    between atoms: _560  and  _562
REMARK  228  A    between atoms: _562  and  _563
REMARK  229  A    between atoms: _562  and  _565
REMARK  230  A    between atoms: _565  and  _566
REMARK  231  A    between atoms: _571  and  _572
REMARK  232  A    between atoms: _574  and  _576
REMARK  233  A    between atoms: _576  and  _577
REMARK  234  A    between atoms: _576  and  _579
REMARK  235  A    between atoms: _579  and  _580
REMARK                            x       y       z     vdW  Elec       q    Type
REMARK                         _______ _______ _______ _____ _____    ______ ____
ROOT
ATOM      1  O   HOH     1      36.990  21.189  11.458  0.00  0.00    +0.000 OA
ENDROOT
TORSDOF 0
REMARK  Name = ../refined-set-2016/1nq7/1nq7_pocket.pdb
REMARK  235 active torsions:
REMARK  status: ('A' for Active; 'I' for Inactive)
REMARK    1  A    between atoms: _1  and  _3
REMARK    2  A    between atoms: _3  and  _4
REMARK    3  A    between atoms: _3  and  _6
REMARK    4  A    between atoms: _6  and  _7
REMARK    5  A    between atoms: _12  and  _14
REMARK    6  A    between atoms: _14  and  _15
REMARK    7  A    between atoms: _14  and  _17
REMARK    8  A    between atoms: _17  and  _18
REMARK    9  A    between atoms: _21  and  _23
REMARK   10  A    between atoms: _23  and  _24
REMARK   11  A    between atoms: _23  and  _26
REMARK   12  A    between atoms: _28  and  _30
REMARK   13  A    between atoms: _30  and  _31
REMARK   14  A    between atoms: _30  and  _33
REMARK   15  A    between atoms: _33  and  _34
REMARK   16  A    between atoms: _34  and  _35
REMARK   17  A    between atoms: _40  and  _42
REMARK   18  A    between atoms: _42  and  _43
REMARK   19  A    between atoms: _42  and  _45
REMARK   20  A    between atoms: _45  and  _46
REMARK   21  A    between atoms: _51  and  _52
REMARK   22  A    between atoms: _54  and  _56
REMARK   23  A    between atoms: _56  and  _57
REMARK   24  A    between atoms: _56  and  _59
REMARK   25  A    between atoms: _59  and  _60
REMARK   26  A    between atoms: _63  and  _65
REMARK   27  A    between atoms: _65  and  _66
REMARK   28  A    between atoms: _65  and  _68
REMARK   29  A    between atoms: _68  and  _69
REMARK   30  A    between atoms: _72  and  _74
REMARK   31  A    between atoms: _74  and  _75
REMARK   32  A    between atoms: _74  and  _77
REMARK   33  A    between atoms: _77  and  _78
REMARK   34  A    between atoms: _81  and  _83
REMARK   35  A    between atoms: _83  and  _84
REMARK   36  A    between atoms: _83  and  _86
REMARK   37  A    between atoms: _86  and  _87
REMARK   38  A    between atoms: _97  and  _99
REMARK   39  A    between atoms: _99  and  _100
REMARK   40  A    between atoms: _99  and  _102
REMARK   41  A    between atoms: _102  and  _103
REMARK   42  A    between atoms: _103  and  _104
REMARK   43  A    between atoms: _109  and  _111
REMARK   44  A    between atoms: _111  and  _112
REMARK   45  A    between atoms: _111  and  _114
REMARK   46  A    between atoms: _116  and  _118
REMARK   47  A    between atoms: _118  and  _119
REMARK   48  A    between atoms: _122  and  _124
REMARK   49  A    between atoms: _124  and  _125
REMARK   50  A    between atoms: _124  and  _127
REMARK   51  A    between atoms: _127  and  _128
REMARK   52  A    between atoms: _128  and  _129
REMARK   53  A    between atoms: _134  and  _136
REMARK   54  A    between atoms: _136  and  _137
REMARK   55  A    between atoms: _136  and  _139
REMARK   56  A    between atoms: _139  and  _140
REMARK   57  A    between atoms: _143  and  _145
REMARK   58  A    between atoms: _145  and  _146
REMARK   59  A    between atoms: _145  and  _148
REMARK   60  A    between atoms: _148  and  _149
REMARK   61  A    between atoms: _154  and  _156
REMARK   62  A    between atoms: _156  and  _157
REMARK   63  A    between atoms: _160  and  _162
REMARK   64  A    between atoms: _162  and  _163
REMARK   65  A    between atoms: _162  and  _165
REMARK   66  A    between atoms: _165  and  _166
REMARK   67  A    between atoms: _169  and  _171
REMARK   68  A    between atoms: _171  and  _172
REMARK   69  A    between atoms: _171  and  _174
REMARK   70  A    between atoms: _174  and  _175
REMARK   71  A    between atoms: _180  and  _181
REMARK   72  A    between atoms: _183  and  _185
REMARK   73  A    between atoms: _185  and  _186
REMARK   74  A    between atoms: _185  and  _188
REMARK   75  A    between atoms: _191  and  _193
REMARK   76  A    between atoms: _193  and  _194
REMARK   77  A    between atoms: _193  and  _196
REMARK   78  A    between atoms: _198  and  _200
REMARK   79  A    between atoms: _200  and  _201
REMARK   80  A    between atoms: _200  and  _203
REMARK   81  A    between atoms: _203  and  _204
REMARK   82  A    between atoms: _207  and  _209
REMARK   83  A    between atoms: _209  and  _210
REMARK   84  A    between atoms: _209  and  _212
REMARK   85  A    between atoms: _212  and  _213
REMARK   86  A    between atoms: _213  and  _214
REMARK   87  A    between atoms: _217  and  _219
REMARK   88  A    between atoms: _219  and  _220
REMARK   89  A    between atoms: _219  and  _222
REMARK   90  A    between atoms: _225  and  _227
REMARK   91  A    between atoms: _227  and  _228
REMARK   92  A    between atoms: _227  and  _230
REMARK   93  A    between atoms: _233  and  _235
REMARK   94  A    between atoms: _235  and  _236
REMARK   95  A    between atoms: _235  and  _238
REMARK   96  A    between atoms: _238  and  _239
REMARK   97  A    between atoms: _242  and  _244
REMARK   98  A    between atoms: _244  and  _245
REMARK   99  A    between atoms: _244  and  _247
REMARK  100  A    between atoms: _250  and  _252
REMARK  101  A    between atoms: _252  and  _253
REMARK  102  A    between atoms: _252  and  _255
REMARK  103  A    between atoms: _255  and  _256
REMARK  104  A    between atoms: _256  and  _257
REMARK  105  A    between atoms: _257  and  _258
REMARK  106  A    between atoms: _267  and  _269
REMARK  107  A    between atoms: _269  and  _270
REMARK  108  A    between atoms: _269  and  _272
REMARK  109  A    between atoms: _272  and  _273
REMARK  110  A    between atoms: _273  and  _274
REMARK  111  A    between atoms: _276  and  _278
REMARK  112  A    between atoms: _278  and  _279
REMARK  113  A    between atoms: _278  and  _281
REMARK  114  A    between atoms: _283  and  _285
REMARK  115  A    between atoms: _285  and  _286
REMARK  116  A    between atoms: _285  and  _288
REMARK  117  A    between atoms: _288  and  _289
REMARK  118  A    between atoms: _289  and  _290
REMARK  119  A    between atoms: _290  and  _291
REMARK  120  A    between atoms: _300  and  _302
REMARK  121  A    between atoms: _302  and  _303
REMARK  122  A    between atoms: _306  and  _308
REMARK  123  A    between atoms: _308  and  _309
REMARK  124  A    between atoms: _308  and  _311
REMARK  125  A    between atoms: _311  and  _312
REMARK  126  A    between atoms: _318  and  _320
REMARK  127  A    between atoms: _320  and  _321
REMARK  128  A    between atoms: _320  and  _323
REMARK  129  A    between atoms: _326  and  _328
REMARK  130  A    between atoms: _328  and  _329
REMARK  131  A    between atoms: _328  and  _331
REMARK  132  A    between atoms: _331  and  _332
REMARK  133  A    between atoms: _335  and  _337
REMARK  134  A    between atoms: _337  and  _338
REMARK  135  A    between atoms: _337  and  _340
REMARK  136  A    between atoms: _340  and  _341
REMARK  137  A    between atoms: _347  and  _349
REMARK  138  A    between atoms: _349  and  _350
REMARK  139  A    between atoms: _349  and  _352
REMARK  140  A    between atoms: _352  and  _353
REMARK  141  A    between atoms: _353  and  _354
REMARK  142  A    between atoms: _357  and  _359
REMARK  143  A    between atoms: _359  and  _360
REMARK  144  A    between atoms: _362  and  _364
REMARK  145  A    between atoms: _364  and  _365
REMARK  146  A    between atoms: _367  and  _369
REMARK  147  A    between atoms: _369  and  _370
REMARK  148  A    between atoms: _372  and  _374
REMARK  149  A    between atoms: _374  and  _375
REMARK  150  A    between atoms: _374  and  _377
REMARK  151  A    between atoms: _377  and  _378
REMARK  152  A    between atoms: _378  and  _379
REMARK  153  A    between atoms: _381  and  _383
REMARK  154  A    between atoms: _383  and  _384
REMARK  155  A    between atoms: _383  and  _386
REMARK  156  A    between atoms: _386  and  _387
REMARK  157  A    between atoms: _387  and  _388
REMARK  158  A    between atoms: _390  and  _392
REMARK  159  A    between atoms: _392  and  _393
REMARK  160  A    between atoms: _392  and  _395
REMARK  161  A    between atoms: _395  and  _396
REMARK  162  A    between atoms: _402  and  _404
REMARK  163  A    between atoms: _404  and  _405
REMARK  164  A    between atoms: _404  and  _407
REMARK  165  A    between atoms: _407  and  _408
REMARK  166  A    between atoms: _411  and  _413
REMARK  167  A    between atoms: _413  and  _414
REMARK  168  A    between atoms: _413  and  _416
REMARK  169  A    between atoms: _416  and  _417
REMARK  170  A    between atoms: _419  and  _421
REMARK  171  A    between atoms: _421  and  _422
REMARK  172  A    between atoms: _421  and  _424
REMARK  173  A    between atoms: _424  and  _425
REMARK  174  A    between atoms: _428  and  _430
REMARK  175  A    between atoms: _430  and  _431
REMARK  176  A    between atoms: _430  and  _433
REMARK  177  A    between atoms: _436  and  _438
REMARK  178  A    between atoms: _438  and  _439
REMARK  179  A    between atoms: _438  and  _441
REMARK  180  A    between atoms: _441  and  _442
REMARK  181  A    between atoms: _447  and  _449
REMARK  182  A    between atoms: _449  and  _450
REMARK  183  A    between atoms: _449  and  _452
REMARK  184  A    between atoms: _452  and  _453
REMARK  185  A    between atoms: _453  and  _454
REMARK  186  A    between atoms: _457  and  _459
REMARK  187  A    between atoms: _459  and  _460
REMARK  188  A    between atoms: _463  and  _465
REMARK  189  A    between atoms: _465  and  _466
REMARK  190  A    between atoms: _465  and  _468
REMARK  191  A    between atoms: _468  and  _469
REMARK  192  A    between atoms: _475  and  _477
REMARK  193  A    between atoms: _477  and  _478
REMARK  194  A    between atoms: _477  and  _480
REMARK  195  A    between atoms: _480  and  _481
REMARK  196  A    between atoms: _487  and  _489
REMARK  197  A    between atoms: _489  and  _490
REMARK  198  A    between atoms: _489  and  _492
REMARK  199  A    between atoms: _492  and  _493
REMARK  200  A    between atoms: _496  and  _498
REMARK  201  A    between atoms: _498  and  _499
REMARK  202  A    between atoms: _498  and  _501
REMARK  203  A    between atoms: _504  and  _506
REMARK  204  A    between atoms: _506  and  _507
REMARK  205  A    between atoms: _506  and  _509
REMARK  206  A    between atoms: _511  and  _513
REMARK  207  A    between atoms: _513  and  _514
REMARK  208  A    between atoms: _513  and  _516
REMARK  209  A    between atoms: _516  and  _517
REMARK  210  A    between atoms: _522  and  _524
REMARK  211  A    between atoms: _524  and  _525
REMARK  212  A    between atoms: _524  and  _527
REMARK  213  A    between atoms: _527  and  _528
REMARK  214  A    between atoms: _531  and  _533
REMARK  215  A    between atoms: _533  and  _534
REMARK  216  A    between atoms: _533  and  _536
REMARK  217  A    between atoms: _536  and  _537
REMARK  218  A    between atoms: _542  and  _544
REMARK  219  A    between atoms: _544  and  _545
REMARK  220  A    between atoms: _547  and  _549
REMARK  221  A    between atoms: _549  and  _550
REMARK  222  A    between atoms: _549  and  _552
REMARK  223  A    between atoms: _552  and  _553
REMARK  224  A    between atoms: _553  and  _554
REMARK  225  A    between atoms: _554  and  _555
REMARK  226  A    between atoms: _555  and  _556
REMARK  227  A    between atoms: _560  and  _562
REMARK  228  A    between atoms: _562  and  _563
REMARK  229  A    between atoms: _562  and  _565
REMARK  230  A    between atoms: _565  and  _566
REMARK  231  A    between atoms: _571  and  _572
REMARK  232  A    between atoms: _574  and  _576
REMARK  233  A    between atoms: _576  and  _577
REMARK  234  A    between atoms: _576  and  _579
REMARK  235  A    between atoms: _579  and  _580
REMARK                            x       y       z     vdW  Elec       q    Type
REMARK                         _______ _______ _______ _____ _____    ______ ____
ROOT
ATOM      1  O   HOH     1      29.852  26.256   5.952  0.00  0.00    +0.000 OA
ENDROOT
TORSDOF 0
REMARK  Name = ../refined-set-2016/1nq7/1nq7_pocket.pdb
REMARK  235 active torsions:
REMARK  status: ('A' for Active; 'I' for Inactive)
REMARK    1  A    between atoms: _1  and  _3
REMARK    2  A    between atoms: _3  and  _4
REMARK    3  A    between atoms: _3  and  _6
REMARK    4  A    between atoms: _6  and  _7
REMARK    5  A    between atoms: _12  and  _14
REMARK    6  A    between atoms: _14  and  _15
REMARK    7  A    between atoms: _14  and  _17
REMARK    8  A    between atoms: _17  and  _18
REMARK    9  A    between atoms: _21  and  _23
REMARK   10  A    between atoms: _23  and  _24
REMARK   11  A    between atoms: _23  and  _26
REMARK   12  A    between atoms: _28  and  _30
REMARK   13  A    between atoms: _30  and  _31
REMARK   14  A    between atoms: _30  and  _33
REMARK   15  A    between atoms: _33  and  _34
REMARK   16  A    between atoms: _34  and  _35
REMARK   17  A    between atoms: _40  and  _42
REMARK   18  A    between atoms: _42  and  _43
REMARK   19  A    between atoms: _42  and  _45
REMARK   20  A    between atoms: _45  and  _46
REMARK   21  A    between atoms: _51  and  _52
REMARK   22  A    between atoms: _54  and  _56
REMARK   23  A    between atoms: _56  and  _57
REMARK   24  A    between atoms: _56  and  _59
REMARK   25  A    between atoms: _59  and  _60
REMARK   26  A    between atoms: _63  and  _65
REMARK   27  A    between atoms: _65  and  _66
REMARK   28  A    between atoms: _65  and  _68
REMARK   29  A    between atoms: _68  and  _69
REMARK   30  A    between atoms: _72  and  _74
REMARK   31  A    between atoms: _74  and  _75
REMARK   32  A    between atoms: _74  and  _77
REMARK   33  A    between atoms: _77  and  _78
REMARK   34  A    between atoms: _81  and  _83
REMARK   35  A    between atoms: _83  and  _84
REMARK   36  A    between atoms: _83  and  _86
REMARK   37  A    between atoms: _86  and  _87
REMARK   38  A    between atoms: _97  and  _99
REMARK   39  A    between atoms: _99  and  _100
REMARK   40  A    between atoms: _99  and  _102
REMARK   41  A    between atoms: _102  and  _103
REMARK   42  A    between atoms: _103  and  _104
REMARK   43  A    between atoms: _109  and  _111
REMARK   44  A    between atoms: _111  and  _112
REMARK   45  A    between atoms: _111  and  _114
REMARK   46  A    between atoms: _116  and  _118
REMARK   47  A    between atoms: _118  and  _119
REMARK   48  A    between atoms: _122  and  _124
REMARK   49  A    between atoms: _124  and  _125
REMARK   50  A    between atoms: _124  and  _127
REMARK   51  A    between atoms: _127  and  _128
REMARK   52  A    between atoms: _128  and  _129
REMARK   53  A    between atoms: _134  and  _136
REMARK   54  A    between atoms: _136  and  _137
REMARK   55  A    between atoms: _136  and  _139
REMARK   56  A    between atoms: _139  and  _140
REMARK   57  A    between atoms: _143  and  _145
REMARK   58  A    between atoms: _145  and  _146
REMARK   59  A    between atoms: _145  and  _148
REMARK   60  A    between atoms: _148  and  _149
REMARK   61  A    between atoms: _154  and  _156
REMARK   62  A    between atoms: _156  and  _157
REMARK   63  A    between atoms: _160  and  _162
REMARK   64  A    between atoms: _162  and  _163
REMARK   65  A    between atoms: _162  and  _165
REMARK   66  A    between atoms: _165  and  _166
REMARK   67  A    between atoms: _169  and  _171
REMARK   68  A    between atoms: _171  and  _172
REMARK   69  A    between atoms: _171  and  _174
REMARK   70  A    between atoms: _174  and  _175
REMARK   71  A    between atoms: _180  and  _181
REMARK   72  A    between atoms: _183  and  _185
REMARK   73  A    between atoms: _185  and  _186
REMARK   74  A    between atoms: _185  and  _188
REMARK   75  A    between atoms: _191  and  _193
REMARK   76  A    between atoms: _193  and  _194
REMARK   77  A    between atoms: _193  and  _196
REMARK   78  A    between atoms: _198  and  _200
REMARK   79  A    between atoms: _200  and  _201
REMARK   80  A    between atoms: _200  and  _203
REMARK   81  A    between atoms: _203  and  _204
REMARK   82  A    between atoms: _207  and  _209
REMARK   83  A    between atoms: _209  and  _210
REMARK   84  A    between atoms: _209  and  _212
REMARK   85  A    between atoms: _212  and  _213
REMARK   86  A    between atoms: _213  and  _214
REMARK   87  A    between atoms: _217  and  _219
REMARK   88  A    between atoms: _219  and  _220
REMARK   89  A    between atoms: _219  and  _222
REMARK   90  A    between atoms: _225  and  _227
REMARK   91  A    between atoms: _227  and  _228
REMARK   92  A    between atoms: _227  and  _230
REMARK   93  A    between atoms: _233  and  _235
REMARK   94  A    between atoms: _235  and  _236
REMARK   95  A    between atoms: _235  and  _238
REMARK   96  A    between atoms: _238  and  _239
REMARK   97  A    between atoms: _242  and  _244
REMARK   98  A    between atoms: _244  and  _245
REMARK   99  A    between atoms: _244  and  _247
REMARK  100  A    between atoms: _250  and  _252
REMARK  101  A    between atoms: _252  and  _253
REMARK  102  A    between atoms: _252  and  _255
REMARK  103  A    between atoms: _255  and  _256
REMARK  104  A    between atoms: _256  and  _257
REMARK  105  A    between atoms: _257  and  _258
REMARK  106  A    between atoms: _267  and  _269
REMARK  107  A    between atoms: _269  and  _270
REMARK  108  A    between atoms: _269  and  _272
REMARK  109  A    between atoms: _272  and  _273
REMARK  110  A    between atoms: _273  and  _274
REMARK  111  A    between atoms: _276  and  _278
REMARK  112  A    between atoms: _278  and  _279
REMARK  113  A    between atoms: _278  and  _281
REMARK  114  A    between atoms: _283  and  _285
REMARK  115  A    between atoms: _285  and  _286
REMARK  116  A    between atoms: _285  and  _288
REMARK  117  A    between atoms: _288  and  _289
REMARK  118  A    between atoms: _289  and  _290
REMARK  119  A    between atoms: _290  and  _291
REMARK  120  A    between atoms: _300  and  _302
REMARK  121  A    between atoms: _302  and  _303
REMARK  122  A    between atoms: _306  and  _308
REMARK  123  A    between atoms: _308  and  _309
REMARK  124  A    between atoms: _308  and  _311
REMARK  125  A    between atoms: _311  and  _312
REMARK  126  A    between atoms: _318  and  _320
REMARK  127  A    between atoms: _320  and  _321
REMARK  128  A    between atoms: _320  and  _323
REMARK  129  A    between atoms: _326  and  _328
REMARK  130  A    between atoms: _328  and  _329
REMARK  131  A    between atoms: _328  and  _331
REMARK  132  A    between atoms: _331  and  _332
REMARK  133  A    between atoms: _335  and  _337
REMARK  134  A    between atoms: _337  and  _338
REMARK  135  A    between atoms: _337  and  _340
REMARK  136  A    between atoms: _340  and  _341
REMARK  137  A    between atoms: _347  and  _349
REMARK  138  A    between atoms: _349  and  _350
REMARK  139  A    between atoms: _349  and  _352
REMARK  140  A    between atoms: _352  and  _353
REMARK  141  A    between atoms: _353  and  _354
REMARK  142  A    between atoms: _357  and  _359
REMARK  143  A    between atoms: _359  and  _360
REMARK  144  A    between atoms: _362  and  _364
REMARK  145  A    between atoms: _364  and  _365
REMARK  146  A    between atoms: _367  and  _369
REMARK  147  A    between atoms: _369  and  _370
REMARK  148  A    between atoms: _372  and  _374
REMARK  149  A    between atoms: _374  and  _375
REMARK  150  A    between atoms: _374  and  _377
REMARK  151  A    between atoms: _377  and  _378
REMARK  152  A    between atoms: _378  and  _379
REMARK  153  A    between atoms: _381  and  _383
REMARK  154  A    between atoms: _383  and  _384
REMARK  155  A    between atoms: _383  and  _386
REMARK  156  A    between atoms: _386  and  _387
REMARK  157  A    between atoms: _387  and  _388
REMARK  158  A    between atoms: _390  and  _392
REMARK  159  A    between atoms: _392  and  _393
REMARK  160  A    between atoms: _392  and  _395
REMARK  161  A    between atoms: _395  and  _396
REMARK  162  A    between atoms: _402  and  _404
REMARK  163  A    between atoms: _404  and  _405
REMARK  164  A    between atoms: _404  and  _407
REMARK  165  A    between atoms: _407  and  _408
REMARK  166  A    between atoms: _411  and  _413
REMARK  167  A    between atoms: _413  and  _414
REMARK  168  A    between atoms: _413  and  _416
REMARK  169  A    between atoms: _416  and  _417
REMARK  170  A    between atoms: _419  and  _421
REMARK  171  A    between atoms: _421  and  _422
REMARK  172  A    between atoms: _421  and  _424
REMARK  173  A    between atoms: _424  and  _425
REMARK  174  A    between atoms: _428  and  _430
REMARK  175  A    between atoms: _430  and  _431
REMARK  176  A    between atoms: _430  and  _433
REMARK  177  A    between atoms: _436  and  _438
REMARK  178  A    between atoms: _438  and  _439
REMARK  179  A    between atoms: _438  and  _441
REMARK  180  A    between atoms: _441  and  _442
REMARK  181  A    between atoms: _447  and  _449
REMARK  182  A    between atoms: _449  and  _450
REMARK  183  A    between atoms: _449  and  _452
REMARK  184  A    between atoms: _452  and  _453
REMARK  185  A    between atoms: _453  and  _454
REMARK  186  A    between atoms: _457  and  _459
REMARK  187  A    between atoms: _459  and  _460
REMARK  188  A    between atoms: _463  and  _465
REMARK  189  A    between atoms: _465  and  _466
REMARK  190  A    between atoms: _465  and  _468
REMARK  191  A    between atoms: _468  and  _469
REMARK  192  A    between atoms: _475  and  _477
REMARK  193  A    between atoms: _477  and  _478
REMARK  194  A    between atoms: _477  and  _480
REMARK  195  A    between atoms: _480  and  _481
REMARK  196  A    between atoms: _487  and  _489
REMARK  197  A    between atoms: _489  and  _490
REMARK  198  A    between atoms: _489  and  _492
REMARK  199  A    between atoms: _492  and  _493
REMARK  200  A    between atoms: _496  and  _498
REMARK  201  A    between atoms: _498  and  _499
REMARK  202  A    between atoms: _498  and  _501
REMARK  203  A    between atoms: _504  and  _506
REMARK  204  A    between atoms: _506  and  _507
REMARK  205  A    between atoms: _506  and  _509
REMARK  206  A    between atoms: _511  and  _513
REMARK  207  A    between atoms: _513  and  _514
REMARK  208  A    between atoms: _513  and  _516
REMARK  209  A    between atoms: _516  and  _517
REMARK  210  A    between atoms: _522  and  _524
REMARK  211  A    between atoms: _524  and  _525
REMARK  212  A    between atoms: _524  and  _527
REMARK  213  A    between atoms: _527  and  _528
REMARK  214  A    between atoms: _531  and  _533
REMARK  215  A    between atoms: _533  and  _534
REMARK  216  A    between atoms: _533  and  _536
REMARK  217  A    between atoms: _536  and  _537
REMARK  218  A    between atoms: _542  and  _544
REMARK  219  A    between atoms: _544  and  _545
REMARK  220  A    between atoms: _547  and  _549
REMARK  221  A    between atoms: _549  and  _550
REMARK  222  A    between atoms: _549  and  _552
REMARK  223  A    between atoms: _552  and  _553
REMARK  224  A    between atoms: _553  and  _554
REMARK  225  A    between atoms: _554  and  _555
REMARK  226  A    between atoms: _555  and  _556
REMARK  227  A    between atoms: _560  and  _562
REMARK  228  A    between atoms: _562  and  _563
REMARK  229  A    between atoms: _562  and  _565
REMARK  230  A    between atoms: _565  and  _566
REMARK  231  A    between atoms: _571  and  _572
REMARK  232  A    between atoms: _574  and  _576
REMARK  233  A    between atoms: _576  and  _577
REMARK  234  A    between atoms: _576  and  _579
REMARK  235  A    between atoms: _579  and  _580
REMARK                            x       y       z     vdW  Elec       q    Type
REMARK                         _______ _______ _______ _____ _____    ______ ____
ROOT
ATOM      1  O   HOH     1      35.314  24.041   6.375  0.00  0.00    +0.000 OA
ENDROOT
TORSDOF 0
REMARK  Name = ../refined-set-2016/1nq7/1nq7_pocket.pdb
REMARK  235 active torsions:
REMARK  status: ('A' for Active; 'I' for Inactive)
REMARK    1  A    between atoms: _1  and  _3
REMARK    2  A    between atoms: _3  and  _4
REMARK    3  A    between atoms: _3  and  _6
REMARK    4  A    between atoms: _6  and  _7
REMARK    5  A    between atoms: _12  and  _14
REMARK    6  A    between atoms: _14  and  _15
REMARK    7  A    between atoms: _14  and  _17
REMARK    8  A    between atoms: _17  and  _18
REMARK    9  A    between atoms: _21  and  _23
REMARK   10  A    between atoms: _23  and  _24
REMARK   11  A    between atoms: _23  and  _26
REMARK   12  A    between atoms: _28  and  _30
REMARK   13  A    between atoms: _30  and  _31
REMARK   14  A    between atoms: _30  and  _33
REMARK   15  A    between atoms: _33  and  _34
REMARK   16  A    between atoms: _34  and  _35
REMARK   17  A    between atoms: _40  and  _42
REMARK   18  A    between atoms: _42  and  _43
REMARK   19  A    between atoms: _42  and  _45
REMARK   20  A    between atoms: _45  and  _46
REMARK   21  A    between atoms: _51  and  _52
REMARK   22  A    between atoms: _54  and  _56
REMARK   23  A    between atoms: _56  and  _57
REMARK   24  A    between atoms: _56  and  _59
REMARK   25  A    between atoms: _59  and  _60
REMARK   26  A    between atoms: _63  and  _65
REMARK   27  A    between atoms: _65  and  _66
REMARK   28  A    between atoms: _65  and  _68
REMARK   29  A    between atoms: _68  and  _69
REMARK   30  A    between atoms: _72  and  _74
REMARK   31  A    between atoms: _74  and  _75
REMARK   32  A    between atoms: _74  and  _77
REMARK   33  A    between atoms: _77  and  _78
REMARK   34  A    between atoms: _81  and  _83
REMARK   35  A    between atoms: _83  and  _84
REMARK   36  A    between atoms: _83  and  _86
REMARK   37  A    between atoms: _86  and  _87
REMARK   38  A    between atoms: _97  and  _99
REMARK   39  A    between atoms: _99  and  _100
REMARK   40  A    between atoms: _99  and  _102
REMARK   41  A    between atoms: _102  and  _103
REMARK   42  A    between atoms: _103  and  _104
REMARK   43  A    between atoms: _109  and  _111
REMARK   44  A    between atoms: _111  and  _112
REMARK   45  A    between atoms: _111  and  _114
REMARK   46  A    between atoms: _116  and  _118
REMARK   47  A    between atoms: _118  and  _119
REMARK   48  A    between atoms: _122  and  _124
REMARK   49  A    between atoms: _124  and  _125
REMARK   50  A    between atoms: _124  and  _127
REMARK   51  A    between atoms: _127  and  _128
REMARK   52  A    between atoms: _128  and  _129
REMARK   53  A    between atoms: _134  and  _136
REMARK   54  A    between atoms: _136  and  _137
REMARK   55  A    between atoms: _136  and  _139
REMARK   56  A    between atoms: _139  and  _140
REMARK   57  A    between atoms: _143  and  _145
REMARK   58  A    between atoms: _145  and  _146
REMARK   59  A    between atoms: _145  and  _148
REMARK   60  A    between atoms: _148  and  _149
REMARK   61  A    between atoms: _154  and  _156
REMARK   62  A    between atoms: _156  and  _157
REMARK   63  A    between atoms: _160  and  _162
REMARK   64  A    between atoms: _162  and  _163
REMARK   65  A    between atoms: _162  and  _165
REMARK   66  A    between atoms: _165  and  _166
REMARK   67  A    between atoms: _169  and  _171
REMARK   68  A    between atoms: _171  and  _172
REMARK   69  A    between atoms: _171  and  _174
REMARK   70  A    between atoms: _174  and  _175
REMARK   71  A    between atoms: _180  and  _181
REMARK   72  A    between atoms: _183  and  _185
REMARK   73  A    between atoms: _185  and  _186
REMARK   74  A    between atoms: _185  and  _188
REMARK   75  A    between atoms: _191  and  _193
REMARK   76  A    between atoms: _193  and  _194
REMARK   77  A    between atoms: _193  and  _196
REMARK   78  A    between atoms: _198  and  _200
REMARK   79  A    between atoms: _200  and  _201
REMARK   80  A    between atoms: _200  and  _203
REMARK   81  A    between atoms: _203  and  _204
REMARK   82  A    between atoms: _207  and  _209
REMARK   83  A    between atoms: _209  and  _210
REMARK   84  A    between atoms: _209  and  _212
REMARK   85  A    between atoms: _212  and  _213
REMARK   86  A    between atoms: _213  and  _214
REMARK   87  A    between atoms: _217  and  _219
REMARK   88  A    between atoms: _219  and  _220
REMARK   89  A    between atoms: _219  and  _222
REMARK   90  A    between atoms: _225  and  _227
REMARK   91  A    between atoms: _227  and  _228
REMARK   92  A    between atoms: _227  and  _230
REMARK   93  A    between atoms: _233  and  _235
REMARK   94  A    between atoms: _235  and  _236
REMARK   95  A    between atoms: _235  and  _238
REMARK   96  A    between atoms: _238  and  _239
REMARK   97  A    between atoms: _242  and  _244
REMARK   98  A    between atoms: _244  and  _245
REMARK   99  A    between atoms: _244  and  _247
REMARK  100  A    between atoms: _250  and  _252
REMARK  101  A    between atoms: _252  and  _253
REMARK  102  A    between atoms: _252  and  _255
REMARK  103  A    between atoms: _255  and  _256
REMARK  104  A    between atoms: _256  and  _257
REMARK  105  A    between atoms: _257  and  _258
REMARK  106  A    between atoms: _267  and  _269
REMARK  107  A    between atoms: _269  and  _270
REMARK  108  A    between atoms: _269  and  _272
REMARK  109  A    between atoms: _272  and  _273
REMARK  110  A    between atoms: _273  and  _274
REMARK  111  A    between atoms: _276  and  _278
REMARK  112  A    between atoms: _278  and  _279
REMARK  113  A    between atoms: _278  and  _281
REMARK  114  A    between atoms: _283  and  _285
REMARK  115  A    between atoms: _285  and  _286
REMARK  116  A    between atoms: _285  and  _288
REMARK  117  A    between atoms: _288  and  _289
REMARK  118  A    between atoms: _289  and  _290
REMARK  119  A    between atoms: _290  and  _291
REMARK  120  A    between atoms: _300  and  _302
REMARK  121  A    between atoms: _302  and  _303
REMARK  122  A    between atoms: _306  and  _308
REMARK  123  A    between atoms: _308  and  _309
REMARK  124  A    between atoms: _308  and  _311
REMARK  125  A    between atoms: _311  and  _312
REMARK  126  A    between atoms: _318  and  _320
REMARK  127  A    between atoms: _320  and  _321
REMARK  128  A    between atoms: _320  and  _323
REMARK  129  A    between atoms: _326  and  _328
REMARK  130  A    between atoms: _328  and  _329
REMARK  131  A    between atoms: _328  and  _331
REMARK  132  A    between atoms: _331  and  _332
REMARK  133  A    between atoms: _335  and  _337
REMARK  134  A    between atoms: _337  and  _338
REMARK  135  A    between atoms: _337  and  _340
REMARK  136  A    between atoms: _340  and  _341
REMARK  137  A    between atoms: _347  and  _349
REMARK  138  A    between atoms: _349  and  _350
REMARK  139  A    between atoms: _349  and  _352
REMARK  140  A    between atoms: _352  and  _353
REMARK  141  A    between atoms: _353  and  _354
REMARK  142  A    between atoms: _357  and  _359
REMARK  143  A    between atoms: _359  and  _360
REMARK  144  A    between atoms: _362  and  _364
REMARK  145  A    between atoms: _364  and  _365
REMARK  146  A    between atoms: _367  and  _369
REMARK  147  A    between atoms: _369  and  _370
REMARK  148  A    between atoms: _372  and  _374
REMARK  149  A    between atoms: _374  and  _375
REMARK  150  A    between atoms: _374  and  _377
REMARK  151  A    between atoms: _377  and  _378
REMARK  152  A    between atoms: _378  and  _379
REMARK  153  A    between atoms: _381  and  _383
REMARK  154  A    between atoms: _383  and  _384
REMARK  155  A    between atoms: _383  and  _386
REMARK  156  A    between atoms: _386  and  _387
REMARK  157  A    between atoms: _387  and  _388
REMARK  158  A    between atoms: _390  and  _392
REMARK  159  A    between atoms: _392  and  _393
REMARK  160  A    between atoms: _392  and  _395
REMARK  161  A    between atoms: _395  and  _396
REMARK  162  A    between atoms: _402  and  _404
REMARK  163  A    between atoms: _404  and  _405
REMARK  164  A    between atoms: _404  and  _407
REMARK  165  A    between atoms: _407  and  _408
REMARK  166  A    between atoms: _411  and  _413
REMARK  167  A    between atoms: _413  and  _414
REMARK  168  A    between atoms: _413  and  _416
REMARK  169  A    between atoms: _416  and  _417
REMARK  170  A    between atoms: _419  and  _421
REMARK  171  A    between atoms: _421  and  _422
REMARK  172  A    between atoms: _421  and  _424
REMARK  173  A    between atoms: _424  and  _425
REMARK  174  A    between atoms: _428  and  _430
REMARK  175  A    between atoms: _430  and  _431
REMARK  176  A    between atoms: _430  and  _433
REMARK  177  A    between atoms: _436  and  _438
REMARK  178  A    between atoms: _438  and  _439
REMARK  179  A    between atoms: _438  and  _441
REMARK  180  A    between atoms: _441  and  _442
REMARK  181  A    between atoms: _447  and  _449
REMARK  182  A    between atoms: _449  and  _450
REMARK  183  A    between atoms: _449  and  _452
REMARK  184  A    between atoms: _452  and  _453
REMARK  185  A    between atoms: _453  and  _454
REMARK  186  A    between atoms: _457  and  _459
REMARK  187  A    between atoms: _459  and  _460
REMARK  188  A    between atoms: _463  and  _465
REMARK  189  A    between atoms: _465  and  _466
REMARK  190  A    between atoms: _465  and  _468
REMARK  191  A    between atoms: _468  and  _469
REMARK  192  A    between atoms: _475  and  _477
REMARK  193  A    between atoms: _477  and  _478
REMARK  194  A    between atoms: _477  and  _480
REMARK  195  A    between atoms: _480  and  _481
REMARK  196  A    between atoms: _487  and  _489
REMARK  197  A    between atoms: _489  and  _490
REMARK  198  A    between atoms: _489  and  _492
REMARK  199  A    between atoms: _492  and  _493
REMARK  200  A    between atoms: _496  and  _498
REMARK  201  A    between atoms: _498  and  _499
REMARK  202  A    between atoms: _498  and  _501
REMARK  203  A    between atoms: _504  and  _506
REMARK  204  A    between atoms: _506  and  _507
REMARK  205  A    between atoms: _506  and  _509
REMARK  206  A    between atoms: _511  and  _513
REMARK  207  A    between atoms: _513  and  _514
REMARK  208  A    between atoms: _513  and  _516
REMARK  209  A    between atoms: _516  and  _517
REMARK  210  A    between atoms: _522  and  _524
REMARK  211  A    between atoms: _524  and  _525
REMARK  212  A    between atoms: _524  and  _527
REMARK  213  A    between atoms: _527  and  _528
REMARK  214  A    between atoms: _531  and  _533
REMARK  215  A    between atoms: _533  and  _534
REMARK  216  A    between atoms: _533  and  _536
REMARK  217  A    between atoms: _536  and  _537
REMARK  218  A    between atoms: _542  and  _544
REMARK  219  A    between atoms: _544  and  _545
REMARK  220  A    between atoms: _547  and  _549
REMARK  221  A    between atoms: _549  and  _550
REMARK  222  A    between atoms: _549  and  _552
REMARK  223  A    between atoms: _552  and  _553
REMARK  224  A    between atoms: _553  and  _554
REMARK  225  A    between atoms: _554  and  _555
REMARK  226  A    between atoms: _555  and  _556
REMARK  227  A    between atoms: _560  and  _562
REMARK  228  A    between atoms: _562  and  _563
REMARK  229  A    between atoms: _562  and  _565
REMARK  230  A    between atoms: _565  and  _566
REMARK  231  A    between atoms: _571  and  _572
REMARK  232  A    between atoms: _574  and  _576
REMARK  233  A    between atoms: _576  and  _577
REMARK  234  A    between atoms: _576  and  _579
REMARK  235  A    between atoms: _579  and  _580
REMARK                            x       y       z     vdW  Elec       q    Type
REMARK                         _______ _______ _______ _____ _____    ______ ____
ROOT
ATOM      1  O   HOH     1      33.877  28.387   7.307  0.00  0.00    +0.000 OA
ENDROOT
TORSDOF 0
REMARK  Name = ../refined-set-2016/1nq7/1nq7_pocket.pdb
REMARK  235 active torsions:
REMARK  status: ('A' for Active; 'I' for Inactive)
REMARK    1  A    between atoms: _1  and  _3
REMARK    2  A    between atoms: _3  and  _4
REMARK    3  A    between atoms: _3  and  _6
REMARK    4  A    between atoms: _6  and  _7
REMARK    5  A    between atoms: _12  and  _14
REMARK    6  A    between atoms: _14  and  _15
REMARK    7  A    between atoms: _14  and  _17
REMARK    8  A    between atoms: _17  and  _18
REMARK    9  A    between atoms: _21  and  _23
REMARK   10  A    between atoms: _23  and  _24
REMARK   11  A    between atoms: _23  and  _26
REMARK   12  A    between atoms: _28  and  _30
REMARK   13  A    between atoms: _30  and  _31
REMARK   14  A    between atoms: _30  and  _33
REMARK   15  A    between atoms: _33  and  _34
REMARK   16  A    between atoms: _34  and  _35
REMARK   17  A    between atoms: _40  and  _42
REMARK   18  A    between atoms: _42  and  _43
REMARK   19  A    between atoms: _42  and  _45
REMARK   20  A    between atoms: _45  and  _46
REMARK   21  A    between atoms: _51  and  _52
REMARK   22  A    between atoms: _54  and  _56
REMARK   23  A    between atoms: _56  and  _57
REMARK   24  A    between atoms: _56  and  _59
REMARK   25  A    between atoms: _59  and  _60
REMARK   26  A    between atoms: _63  and  _65
REMARK   27  A    between atoms: _65  and  _66
REMARK   28  A    between atoms: _65  and  _68
REMARK   29  A    between atoms: _68  and  _69
REMARK   30  A    between atoms: _72  and  _74
REMARK   31  A    between atoms: _74  and  _75
REMARK   32  A    between atoms: _74  and  _77
REMARK   33  A    between atoms: _77  and  _78
REMARK   34  A    between atoms: _81  and  _83
REMARK   35  A    between atoms: _83  and  _84
REMARK   36  A    between atoms: _83  and  _86
REMARK   37  A    between atoms: _86  and  _87
REMARK   38  A    between atoms: _97  and  _99
REMARK   39  A    between atoms: _99  and  _100
REMARK   40  A    between atoms: _99  and  _102
REMARK   41  A    between atoms: _102  and  _103
REMARK   42  A    between atoms: _103  and  _104
REMARK   43  A    between atoms: _109  and  _111
REMARK   44  A    between atoms: _111  and  _112
REMARK   45  A    between atoms: _111  and  _114
REMARK   46  A    between atoms: _116  and  _118
REMARK   47  A    between atoms: _118  and  _119
REMARK   48  A    between atoms: _122  and  _124
REMARK   49  A    between atoms: _124  and  _125
REMARK   50  A    between atoms: _124  and  _127
REMARK   51  A    between atoms: _127  and  _128
REMARK   52  A    between atoms: _128  and  _129
REMARK   53  A    between atoms: _134  and  _136
REMARK   54  A    between atoms: _136  and  _137
REMARK   55  A    between atoms: _136  and  _139
REMARK   56  A    between atoms: _139  and  _140
REMARK   57  A    between atoms: _143  and  _145
REMARK   58  A    between atoms: _145  and  _146
REMARK   59  A    between atoms: _145  and  _148
REMARK   60  A    between atoms: _148  and  _149
REMARK   61  A    between atoms: _154  and  _156
REMARK   62  A    between atoms: _156  and  _157
REMARK   63  A    between atoms: _160  and  _162
REMARK   64  A    between atoms: _162  and  _163
REMARK   65  A    between atoms: _162  and  _165
REMARK   66  A    between atoms: _165  and  _166
REMARK   67  A    between atoms: _169  and  _171
REMARK   68  A    between atoms: _171  and  _172
REMARK   69  A    between atoms: _171  and  _174
REMARK   70  A    between atoms: _174  and  _175
REMARK   71  A    between atoms: _180  and  _181
REMARK   72  A    between atoms: _183  and  _185
REMARK   73  A    between atoms: _185  and  _186
REMARK   74  A    between atoms: _185  and  _188
REMARK   75  A    between atoms: _191  and  _193
REMARK   76  A    between atoms: _193  and  _194
REMARK   77  A    between atoms: _193  and  _196
REMARK   78  A    between atoms: _198  and  _200
REMARK   79  A    between atoms: _200  and  _201
REMARK   80  A    between atoms: _200  and  _203
REMARK   81  A    between atoms: _203  and  _204
REMARK   82  A    between atoms: _207  and  _209
REMARK   83  A    between atoms: _209  and  _210
REMARK   84  A    between atoms: _209  and  _212
REMARK   85  A    between atoms: _212  and  _213
REMARK   86  A    between atoms: _213  and  _214
REMARK   87  A    between atoms: _217  and  _219
REMARK   88  A    between atoms: _219  and  _220
REMARK   89  A    between atoms: _219  and  _222
REMARK   90  A    between atoms: _225  and  _227
REMARK   91  A    between atoms: _227  and  _228
REMARK   92  A    between atoms: _227  and  _230
REMARK   93  A    between atoms: _233  and  _235
REMARK   94  A    between atoms: _235  and  _236
REMARK   95  A    between atoms: _235  and  _238
REMARK   96  A    between atoms: _238  and  _239
REMARK   97  A    between atoms: _242  and  _244
REMARK   98  A    between atoms: _244  and  _245
REMARK   99  A    between atoms: _244  and  _247
REMARK  100  A    between atoms: _250  and  _252
REMARK  101  A    between atoms: _252  and  _253
REMARK  102  A    between atoms: _252  and  _255
REMARK  103  A    between atoms: _255  and  _256
REMARK  104  A    between atoms: _256  and  _257
REMARK  105  A    between atoms: _257  and  _258
REMARK  106  A    between atoms: _267  and  _269
REMARK  107  A    between atoms: _269  and  _270
REMARK  108  A    between atoms: _269  and  _272
REMARK  109  A    between atoms: _272  and  _273
REMARK  110  A    between atoms: _273  and  _274
REMARK  111  A    between atoms: _276  and  _278
REMARK  112  A    between atoms: _278  and  _279
REMARK  113  A    between atoms: _278  and  _281
REMARK  114  A    between atoms: _283  and  _285
REMARK  115  A    between atoms: _285  and  _286
REMARK  116  A    between atoms: _285  and  _288
REMARK  117  A    between atoms: _288  and  _289
REMARK  118  A    between atoms: _289  and  _290
REMARK  119  A    between atoms: _290  and  _291
REMARK  120  A    between atoms: _300  and  _302
REMARK  121  A    between atoms: _302  and  _303
REMARK  122  A    between atoms: _306  and  _308
REMARK  123  A    between atoms: _308  and  _309
REMARK  124  A    between atoms: _308  and  _311
REMARK  125  A    between atoms: _311  and  _312
REMARK  126  A    between atoms: _318  and  _320
REMARK  127  A    between atoms: _320  and  _321
REMARK  128  A    between atoms: _320  and  _323
REMARK  129  A    between atoms: _326  and  _328
REMARK  130  A    between atoms: _328  and  _329
REMARK  131  A    between atoms: _328  and  _331
REMARK  132  A    between atoms: _331  and  _332
REMARK  133  A    between atoms: _335  and  _337
REMARK  134  A    between atoms: _337  and  _338
REMARK  135  A    between atoms: _337  and  _340
REMARK  136  A    between atoms: _340  and  _341
REMARK  137  A    between atoms: _347  and  _349
REMARK  138  A    between atoms: _349  and  _350
REMARK  139  A    between atoms: _349  and  _352
REMARK  140  A    between atoms: _352  and  _353
REMARK  141  A    between atoms: _353  and  _354
REMARK  142  A    between atoms: _357  and  _359
REMARK  143  A    between atoms: _359  and  _360
REMARK  144  A    between atoms: _362  and  _364
REMARK  145  A    between atoms: _364  and  _365
REMARK  146  A    between atoms: _367  and  _369
REMARK  147  A    between atoms: _369  and  _370
REMARK  148  A    between atoms: _372  and  _374
REMARK  149  A    between atoms: _374  and  _375
REMARK  150  A    between atoms: _374  and  _377
REMARK  151  A    between atoms: _377  and  _378
REMARK  152  A    between atoms: _378  and  _379
REMARK  153  A    between atoms: _381  and  _383
REMARK  154  A    between atoms: _383  and  _384
REMARK  155  A    between atoms: _383  and  _386
REMARK  156  A    between atoms: _386  and  _387
REMARK  157  A    between atoms: _387  and  _388
REMARK  158  A    between atoms: _390  and  _392
REMARK  159  A    between atoms: _392  and  _393
REMARK  160  A    between atoms: _392  and  _395
REMARK  161  A    between atoms: _395  and  _396
REMARK  162  A    between atoms: _402  and  _404
REMARK  163  A    between atoms: _404  and  _405
REMARK  164  A    between atoms: _404  and  _407
REMARK  165  A    between atoms: _407  and  _408
REMARK  166  A    between atoms: _411  and  _413
REMARK  167  A    between atoms: _413  and  _414
REMARK  168  A    between atoms: _413  and  _416
REMARK  169  A    between atoms: _416  and  _417
REMARK  170  A    between atoms: _419  and  _421
REMARK  171  A    between atoms: _421  and  _422
REMARK  172  A    between atoms: _421  and  _424
REMARK  173  A    between atoms: _424  and  _425
REMARK  174  A    between atoms: _428  and  _430
REMARK  175  A    between atoms: _430  and  _431
REMARK  176  A    between atoms: _430  and  _433
REMARK  177  A    between atoms: _436  and  _438
REMARK  178  A    between atoms: _438  and  _439
REMARK  179  A    between atoms: _438  and  _441
REMARK  180  A    between atoms: _441  and  _442
REMARK  181  A    between atoms: _447  and  _449
REMARK  182  A    between atoms: _449  and  _450
REMARK  183  A    between atoms: _449  and  _452
REMARK  184  A    between atoms: _452  and  _453
REMARK  185  A    between atoms: _453  and  _454
REMARK  186  A    between atoms: _457  and  _459
REMARK  187  A    between atoms: _459  and  _460
REMARK  188  A    between atoms: _463  and  _465
REMARK  189  A    between atoms: _465  and  _466
REMARK  190  A    between atoms: _465  and  _468
REMARK  191  A    between atoms: _468  and  _469
REMARK  192  A    between atoms: _475  and  _477
REMARK  193  A    between atoms: _477  and  _478
REMARK  194  A    between atoms: _477  and  _480
REMARK  195  A    between atoms: _480  and  _481
REMARK  196  A    between atoms: _487  and  _489
REMARK  197  A    between atoms: _489  and  _490
REMARK  198  A    between atoms: _489  and  _492
REMARK  199  A    between atoms: _492  and  _493
REMARK  200  A    between atoms: _496  and  _498
REMARK  201  A    between atoms: _498  and  _499
REMARK  202  A    between atoms: _498  and  _501
REMARK  203  A    between atoms: _504  and  _506
REMARK  204  A    between atoms: _506  and  _507
REMARK  205  A    between atoms: _506  and  _509
REMARK  206  A    between atoms: _511  and  _513
REMARK  207  A    between atoms: _513  and  _514
REMARK  208  A    between atoms: _513  and  _516
REMARK  209  A    between atoms: _516  and  _517
REMARK  210  A    between atoms: _522  and  _524
REMARK  211  A    between atoms: _524  and  _525
REMARK  212  A    between atoms: _524  and  _527
REMARK  213  A    between atoms: _527  and  _528
REMARK  214  A    between atoms: _531  and  _533
REMARK  215  A    between atoms: _533  and  _534
REMARK  216  A    between atoms: _533  and  _536
REMARK  217  A    between atoms: _536  and  _537
REMARK  218  A    between atoms: _542  and  _544
REMARK  219  A    between atoms: _544  and  _545
REMARK  220  A    between atoms: _547  and  _549
REMARK  221  A    between atoms: _549  and  _550
REMARK  222  A    between atoms: _549  and  _552
REMARK  223  A    between atoms: _552  and  _553
REMARK  224  A    between atoms: _553  and  _554
REMARK  225  A    between atoms: _554  and  _555
REMARK  226  A    between atoms: _555  and  _556
REMARK  227  A    between atoms: _560  and  _562
REMARK  228  A    between atoms: _562  and  _563
REMARK  229  A    between atoms: _562  and  _565
REMARK  230  A    between atoms: _565  and  _566
REMARK  231  A    between atoms: _571  and  _572
REMARK  232  A    between atoms: _574  and  _576
REMARK  233  A    between atoms: _576  and  _577
REMARK  234  A    between atoms: _576  and  _579
REMARK  235  A    between atoms: _579  and  _580
REMARK                            x       y       z     vdW  Elec       q    Type
REMARK                         _______ _______ _______ _____ _____    ______ ____
ROOT
ATOM      1  O   HOH     1      34.565  27.337   4.662  0.00  0.00    +0.000 OA
ENDROOT
TORSDOF 0
REMARK  Name = ../refined-set-2016/1nq7/1nq7_pocket.pdb
REMARK  235 active torsions:
REMARK  status: ('A' for Active; 'I' for Inactive)
REMARK    1  A    between atoms: _1  and  _3
REMARK    2  A    between atoms: _3  and  _4
REMARK    3  A    between atoms: _3  and  _6
REMARK    4  A    between atoms: _6  and  _7
REMARK    5  A    between atoms: _12  and  _14
REMARK    6  A    between atoms: _14  and  _15
REMARK    7  A    between atoms: _14  and  _17
REMARK    8  A    between atoms: _17  and  _18
REMARK    9  A    between atoms: _21  and  _23
REMARK   10  A    between atoms: _23  and  _24
REMARK   11  A    between atoms: _23  and  _26
REMARK   12  A    between atoms: _28  and  _30
REMARK   13  A    between atoms: _30  and  _31
REMARK   14  A    between atoms: _30  and  _33
REMARK   15  A    between atoms: _33  and  _34
REMARK   16  A    between atoms: _34  and  _35
REMARK   17  A    between atoms: _40  and  _42
REMARK   18  A    between atoms: _42  and  _43
REMARK   19  A    between atoms: _42  and  _45
REMARK   20  A    between atoms: _45  and  _46
REMARK   21  A    between atoms: _51  and  _52
REMARK   22  A    between atoms: _54  and  _56
REMARK   23  A    between atoms: _56  and  _57
REMARK   24  A    between atoms: _56  and  _59
REMARK   25  A    between atoms: _59  and  _60
REMARK   26  A    between atoms: _63  and  _65
REMARK   27  A    between atoms: _65  and  _66
REMARK   28  A    between atoms: _65  and  _68
REMARK   29  A    between atoms: _68  and  _69
REMARK   30  A    between atoms: _72  and  _74
REMARK   31  A    between atoms: _74  and  _75
REMARK   32  A    between atoms: _74  and  _77
REMARK   33  A    between atoms: _77  and  _78
REMARK   34  A    between atoms: _81  and  _83
REMARK   35  A    between atoms: _83  and  _84
REMARK   36  A    between atoms: _83  and  _86
REMARK   37  A    between atoms: _86  and  _87
REMARK   38  A    between atoms: _97  and  _99
REMARK   39  A    between atoms: _99  and  _100
REMARK   40  A    between atoms: _99  and  _102
REMARK   41  A    between atoms: _102  and  _103
REMARK   42  A    between atoms: _103  and  _104
REMARK   43  A    between atoms: _109  and  _111
REMARK   44  A    between atoms: _111  and  _112
REMARK   45  A    between atoms: _111  and  _114
REMARK   46  A    between atoms: _116  and  _118
REMARK   47  A    between atoms: _118  and  _119
REMARK   48  A    between atoms: _122  and  _124
REMARK   49  A    between atoms: _124  and  _125
REMARK   50  A    between atoms: _124  and  _127
REMARK   51  A    between atoms: _127  and  _128
REMARK   52  A    between atoms: _128  and  _129
REMARK   53  A    between atoms: _134  and  _136
REMARK   54  A    between atoms: _136  and  _137
REMARK   55  A    between atoms: _136  and  _139
REMARK   56  A    between atoms: _139  and  _140
REMARK   57  A    between atoms: _143  and  _145
REMARK   58  A    between atoms: _145  and  _146
REMARK   59  A    between atoms: _145  and  _148
REMARK   60  A    between atoms: _148  and  _149
REMARK   61  A    between atoms: _154  and  _156
REMARK   62  A    between atoms: _156  and  _157
REMARK   63  A    between atoms: _160  and  _162
REMARK   64  A    between atoms: _162  and  _163
REMARK   65  A    between atoms: _162  and  _165
REMARK   66  A    between atoms: _165  and  _166
REMARK   67  A    between atoms: _169  and  _171
REMARK   68  A    between atoms: _171  and  _172
REMARK   69  A    between atoms: _171  and  _174
REMARK   70  A    between atoms: _174  and  _175
REMARK   71  A    between atoms: _180  and  _181
REMARK   72  A    between atoms: _183  and  _185
REMARK   73  A    between atoms: _185  and  _186
REMARK   74  A    between atoms: _185  and  _188
REMARK   75  A    between atoms: _191  and  _193
REMARK   76  A    between atoms: _193  and  _194
REMARK   77  A    between atoms: _193  and  _196
REMARK   78  A    between atoms: _198  and  _200
REMARK   79  A    between atoms: _200  and  _201
REMARK   80  A    between atoms: _200  and  _203
REMARK   81  A    between atoms: _203  and  _204
REMARK   82  A    between atoms: _207  and  _209
REMARK   83  A    between atoms: _209  and  _210
REMARK   84  A    between atoms: _209  and  _212
REMARK   85  A    between atoms: _212  and  _213
REMARK   86  A    between atoms: _213  and  _214
REMARK   87  A    between atoms: _217  and  _219
REMARK   88  A    between atoms: _219  and  _220
REMARK   89  A    between atoms: _219  and  _222
REMARK   90  A    between atoms: _225  and  _227
REMARK   91  A    between atoms: _227  and  _228
REMARK   92  A    between atoms: _227  and  _230
REMARK   93  A    between atoms: _233  and  _235
REMARK   94  A    between atoms: _235  and  _236
REMARK   95  A    between atoms: _235  and  _238
REMARK   96  A    between atoms: _238  and  _239
REMARK   97  A    between atoms: _242  and  _244
REMARK   98  A    between atoms: _244  and  _245
REMARK   99  A    between atoms: _244  and  _247
REMARK  100  A    between atoms: _250  and  _252
REMARK  101  A    between atoms: _252  and  _253
REMARK  102  A    between atoms: _252  and  _255
REMARK  103  A    between atoms: _255  and  _256
REMARK  104  A    between atoms: _256  and  _257
REMARK  105  A    between atoms: _257  and  _258
REMARK  106  A    between atoms: _267  and  _269
REMARK  107  A    between atoms: _269  and  _270
REMARK  108  A    between atoms: _269  and  _272
REMARK  109  A    between atoms: _272  and  _273
REMARK  110  A    between atoms: _273  and  _274
REMARK  111  A    between atoms: _276  and  _278
REMARK  112  A    between atoms: _278  and  _279
REMARK  113  A    between atoms: _278  and  _281
REMARK  114  A    between atoms: _283  and  _285
REMARK  115  A    between atoms: _285  and  _286
REMARK  116  A    between atoms: _285  and  _288
REMARK  117  A    between atoms: _288  and  _289
REMARK  118  A    between atoms: _289  and  _290
REMARK  119  A    between atoms: _290  and  _291
REMARK  120  A    between atoms: _300  and  _302
REMARK  121  A    between atoms: _302  and  _303
REMARK  122  A    between atoms: _306  and  _308
REMARK  123  A    between atoms: _308  and  _309
REMARK  124  A    between atoms: _308  and  _311
REMARK  125  A    between atoms: _311  and  _312
REMARK  126  A    between atoms: _318  and  _320
REMARK  127  A    between atoms: _320  and  _321
REMARK  128  A    between atoms: _320  and  _323
REMARK  129  A    between atoms: _326  and  _328
REMARK  130  A    between atoms: _328  and  _329
REMARK  131  A    between atoms: _328  and  _331
REMARK  132  A    between atoms: _331  and  _332
REMARK  133  A    between atoms: _335  and  _337
REMARK  134  A    between atoms: _337  and  _338
REMARK  135  A    between atoms: _337  and  _340
REMARK  136  A    between atoms: _340  and  _341
REMARK  137  A    between atoms: _347  and  _349
REMARK  138  A    between atoms: _349  and  _350
REMARK  139  A    between atoms: _349  and  _352
REMARK  140  A    between atoms: _352  and  _353
REMARK  141  A    between atoms: _353  and  _354
REMARK  142  A    between atoms: _357  and  _359
REMARK  143  A    between atoms: _359  and  _360
REMARK  144  A    between atoms: _362  and  _364
REMARK  145  A    between atoms: _364  and  _365
REMARK  146  A    between atoms: _367  and  _369
REMARK  147  A    between atoms: _369  and  _370
REMARK  148  A    between atoms: _372  and  _374
REMARK  149  A    between atoms: _374  and  _375
REMARK  150  A    between atoms: _374  and  _377
REMARK  151  A    between atoms: _377  and  _378
REMARK  152  A    between atoms: _378  and  _379
REMARK  153  A    between atoms: _381  and  _383
REMARK  154  A    between atoms: _383  and  _384
REMARK  155  A    between atoms: _383  and  _386
REMARK  156  A    between atoms: _386  and  _387
REMARK  157  A    between atoms: _387  and  _388
REMARK  158  A    between atoms: _390  and  _392
REMARK  159  A    between atoms: _392  and  _393
REMARK  160  A    between atoms: _392  and  _395
REMARK  161  A    between atoms: _395  and  _396
REMARK  162  A    between atoms: _402  and  _404
REMARK  163  A    between atoms: _404  and  _405
REMARK  164  A    between atoms: _404  and  _407
REMARK  165  A    between atoms: _407  and  _408
REMARK  166  A    between atoms: _411  and  _413
REMARK  167  A    between atoms: _413  and  _414
REMARK  168  A    between atoms: _413  and  _416
REMARK  169  A    between atoms: _416  and  _417
REMARK  170  A    between atoms: _419  and  _421
REMARK  171  A    between atoms: _421  and  _422
REMARK  172  A    between atoms: _421  and  _424
REMARK  173  A    between atoms: _424  and  _425
REMARK  174  A    between atoms: _428  and  _430
REMARK  175  A    between atoms: _430  and  _431
REMARK  176  A    between atoms: _430  and  _433
REMARK  177  A    between atoms: _436  and  _438
REMARK  178  A    between atoms: _438  and  _439
REMARK  179  A    between atoms: _438  and  _441
REMARK  180  A    between atoms: _441  and  _442
REMARK  181  A    between atoms: _447  and  _449
REMARK  182  A    between atoms: _449  and  _450
REMARK  183  A    between atoms: _449  and  _452
REMARK  184  A    between atoms: _452  and  _453
REMARK  185  A    between atoms: _453  and  _454
REMARK  186  A    between atoms: _457  and  _459
REMARK  187  A    between atoms: _459  and  _460
REMARK  188  A    between atoms: _463  and  _465
REMARK  189  A    between atoms: _465  and  _466
REMARK  190  A    between atoms: _465  and  _468
REMARK  191  A    between atoms: _468  and  _469
REMARK  192  A    between atoms: _475  and  _477
REMARK  193  A    between atoms: _477  and  _478
REMARK  194  A    between atoms: _477  and  _480
REMARK  195  A    between atoms: _480  and  _481
REMARK  196  A    between atoms: _487  and  _489
REMARK  197  A    between atoms: _489  and  _490
REMARK  198  A    between atoms: _489  and  _492
REMARK  199  A    between atoms: _492  and  _493
REMARK  200  A    between atoms: _496  and  _498
REMARK  201  A    between atoms: _498  and  _499
REMARK  202  A    between atoms: _498  and  _501
REMARK  203  A    between atoms: _504  and  _506
REMARK  204  A    between atoms: _506  and  _507
REMARK  205  A    between atoms: _506  and  _509
REMARK  206  A    between atoms: _511  and  _513
REMARK  207  A    between atoms: _513  and  _514
REMARK  208  A    between atoms: _513  and  _516
REMARK  209  A    between atoms: _516  and  _517
REMARK  210  A    between atoms: _522  and  _524
REMARK  211  A    between atoms: _524  and  _525
REMARK  212  A    between atoms: _524  and  _527
REMARK  213  A    between atoms: _527  and  _528
REMARK  214  A    between atoms: _531  and  _533
REMARK  215  A    between atoms: _533  and  _534
REMARK  216  A    between atoms: _533  and  _536
REMARK  217  A    between atoms: _536  and  _537
REMARK  218  A    between atoms: _542  and  _544
REMARK  219  A    between atoms: _544  and  _545
REMARK  220  A    between atoms: _547  and  _549
REMARK  221  A    between atoms: _549  and  _550
REMARK  222  A    between atoms: _549  and  _552
REMARK  223  A    between atoms: _552  and  _553
REMARK  224  A    between atoms: _553  and  _554
REMARK  225  A    between atoms: _554  and  _555
REMARK  226  A    between atoms: _555  and  _556
REMARK  227  A    between atoms: _560  and  _562
REMARK  228  A    between atoms: _562  and  _563
REMARK  229  A    between atoms: _562  and  _565
REMARK  230  A    between atoms: _565  and  _566
REMARK  231  A    between atoms: _571  and  _572
REMARK  232  A    between atoms: _574  and  _576
REMARK  233  A    between atoms: _576  and  _577
REMARK  234  A    between atoms: _576  and  _579
REMARK  235  A    between atoms: _579  and  _580
REMARK                            x       y       z     vdW  Elec       q    Type
REMARK                         _______ _______ _______ _____ _____    ______ ____
ROOT
ATOM      1  O   HOH     1      33.482  16.790  12.895  0.00  0.00    +0.000 OA
ENDROOT
TORSDOF 0
