REMARK  Name = ../refined-set-2016/4wr7/4wr7_pocket.pdb
REMARK  162 active torsions:
REMARK  status: ('A' for Active; 'I' for Inactive)
REMARK    1  A    between atoms: _1  and  _3
REMARK    2  A    between atoms: _3  and  _4
REMARK    3  A    between atoms: _3  and  _6
REMARK    4  A    between atoms: _6  and  _7
REMARK    5  A    between atoms: _17  and  _19
REMARK    6  A    between atoms: _19  and  _20
REMARK    7  A    between atoms: _19  and  _22
REMARK    8  A    between atoms: _22  and  _23
REMARK    9  A    between atoms: _28  and  _29
REMARK   10  A    between atoms: _31  and  _33
REMARK   11  A    between atoms: _33  and  _34
REMARK   12  A    between atoms: _33  and  _36
REMARK   13  A    between atoms: _36  and  _37
REMARK   14  A    between atoms: _47  and  _49
REMARK   15  A    between atoms: _49  and  _50
REMARK   16  A    between atoms: _49  and  _52
REMARK   17  A    between atoms: _52  and  _53
REMARK   18  A    between atoms: _56  and  _57
REMARK   19  A    between atoms: _62  and  _64
REMARK   20  A    between atoms: _64  and  _65
REMARK   21  A    between atoms: _64  and  _67
REMARK   22  A    between atoms: _67  and  _68
REMARK   23  A    between atoms: _73  and  _75
REMARK   24  A    between atoms: _75  and  _76
REMARK   25  A    between atoms: _75  and  _78
REMARK   26  A    between atoms: _78  and  _79
REMARK   27  A    between atoms: _81  and  _83
REMARK   28  A    between atoms: _83  and  _84
REMARK   29  A    between atoms: _83  and  _86
REMARK   30  A    between atoms: _86  and  _87
REMARK   31  A    between atoms: _92  and  _94
REMARK   32  A    between atoms: _94  and  _95
REMARK   33  A    between atoms: _94  and  _97
REMARK   34  A    between atoms: _97  and  _98
REMARK   35  A    between atoms: _103  and  _105
REMARK   36  A    between atoms: _105  and  _106
REMARK   37  A    between atoms: _105  and  _108
REMARK   38  A    between atoms: _108  and  _109
REMARK   39  A    between atoms: _115  and  _117
REMARK   40  A    between atoms: _117  and  _118
REMARK   41  A    between atoms: _117  and  _120
REMARK   42  A    between atoms: _120  and  _121
REMARK   43  A    between atoms: _121  and  _122
REMARK   44  A    between atoms: _127  and  _129
REMARK   45  A    between atoms: _129  and  _130
REMARK   46  A    between atoms: _129  and  _132
REMARK   47  A    between atoms: _132  and  _133
REMARK   48  A    between atoms: _139  and  _141
REMARK   49  A    between atoms: _152  and  _155
REMARK   50  A    between atoms: _155  and  _156
REMARK   51  A    between atoms: _164  and  _165
REMARK   52  A    between atoms: _173  and  _175
REMARK   53  A    between atoms: _175  and  _176
REMARK   54  A    between atoms: _175  and  _178
REMARK   55  A    between atoms: _178  and  _179
REMARK   56  A    between atoms: _179  and  _180
REMARK   57  A    between atoms: _183  and  _185
REMARK   58  A    between atoms: _185  and  _186
REMARK   59  A    between atoms: _185  and  _188
REMARK   60  A    between atoms: _188  and  _189
REMARK   61  A    between atoms: _194  and  _196
REMARK   62  A    between atoms: _196  and  _197
REMARK   63  A    between atoms: _196  and  _199
REMARK   64  A    between atoms: _199  and  _200
REMARK   65  A    between atoms: _200  and  _201
REMARK   66  A    between atoms: _204  and  _206
REMARK   67  A    between atoms: _206  and  _207
REMARK   68  A    between atoms: _206  and  _209
REMARK   69  A    between atoms: _209  and  _210
REMARK   70  A    between atoms: _213  and  _215
REMARK   71  A    between atoms: _215  and  _216
REMARK   72  A    between atoms: _215  and  _218
REMARK   73  A    between atoms: _218  and  _219
REMARK   74  A    between atoms: _220  and  ZN_460
REMARK   75  A    between atoms: _224  and  _226
REMARK   76  A    between atoms: _226  and  _227
REMARK   77  A    between atoms: _226  and  _229
REMARK   78  A    between atoms: _232  and  _234
REMARK   79  A    between atoms: _234  and  _235
REMARK   80  A    between atoms: _238  and  _240
REMARK   81  A    between atoms: _240  and  _241
REMARK   82  A    between atoms: _240  and  _243
REMARK   83  A    between atoms: _243  and  _244
REMARK   84  A    between atoms: _249  and  _251
REMARK   85  A    between atoms: _251  and  _252
REMARK   86  A    between atoms: _251  and  _254
REMARK   87  A    between atoms: _254  and  _255
REMARK   88  A    between atoms: _258  and  _260
REMARK   89  A    between atoms: _260  and  _261
REMARK   90  A    between atoms: _264  and  _266
REMARK   91  A    between atoms: _266  and  _267
REMARK   92  A    between atoms: _270  and  _272
REMARK   93  A    between atoms: _272  and  _273
REMARK   94  A    between atoms: _276  and  _278
REMARK   95  A    between atoms: _278  and  _279
REMARK   96  A    between atoms: _278  and  _281
REMARK   97  A    between atoms: _281  and  _282
REMARK   98  A    between atoms: _284  and  _286
REMARK   99  A    between atoms: _286  and  _287
REMARK  100  A    between atoms: _286  and  _289
REMARK  101  A    between atoms: _289  and  _290
REMARK  102  A    between atoms: _293  and  _295
REMARK  103  A    between atoms: _295  and  _296
REMARK  104  A    between atoms: _299  and  _301
REMARK  105  A    between atoms: _301  and  _302
REMARK  106  A    between atoms: _301  and  _304
REMARK  107  A    between atoms: _307  and  _309
REMARK  108  A    between atoms: _309  and  _310
REMARK  109  A    between atoms: _309  and  _312
REMARK  110  A    between atoms: _312  and  _313
REMARK  111  A    between atoms: _316  and  _318
REMARK  112  A    between atoms: _318  and  _319
REMARK  113  A    between atoms: _321  and  _323
REMARK  114  A    between atoms: _323  and  _324
REMARK  115  A    between atoms: _326  and  _328
REMARK  116  A    between atoms: _328  and  _329
REMARK  117  A    between atoms: _328  and  _331
REMARK  118  A    between atoms: _331  and  _332
REMARK  119  A    between atoms: _334  and  _336
REMARK  120  A    between atoms: _336  and  _337
REMARK  121  A    between atoms: _336  and  _339
REMARK  122  A    between atoms: _339  and  _340
REMARK  123  A    between atoms: _343  and  _345
REMARK  124  A    between atoms: _345  and  _346
REMARK  125  A    between atoms: _345  and  _348
REMARK  126  A    between atoms: _348  and  _349
REMARK  127  A    between atoms: _352  and  _354
REMARK  128  A    between atoms: _354  and  _355
REMARK  129  A    between atoms: _354  and  _357
REMARK  130  A    between atoms: _357  and  _358
REMARK  131  A    between atoms: _364  and  _365
REMARK  132  A    between atoms: _371  and  _372
REMARK  133  A    between atoms: _377  and  _379
REMARK  134  A    between atoms: _379  and  _380
REMARK  135  A    between atoms: _379  and  _382
REMARK  136  A    between atoms: _382  and  _383
REMARK  137  A    between atoms: _386  and  _388
REMARK  138  A    between atoms: _388  and  _389
REMARK  139  A    between atoms: _388  and  _391
REMARK  140  A    between atoms: _391  and  _392
REMARK  141  A    between atoms: _397  and  _398
REMARK  142  A    between atoms: _400  and  _402
REMARK  143  A    between atoms: _402  and  _403
REMARK  144  A    between atoms: _402  and  _405
REMARK  145  A    between atoms: _405  and  _406
REMARK  146  A    between atoms: _408  and  _410
REMARK  147  A    between atoms: _410  and  _411
REMARK  148  A    between atoms: _410  and  _413
REMARK  149  A    between atoms: _416  and  _418
REMARK  150  A    between atoms: _418  and  _419
REMARK  151  A    between atoms: _418  and  _421
REMARK  152  A    between atoms: _421  and  _422
REMARK  153  A    between atoms: _432  and  _434
REMARK  154  A    between atoms: _434  and  _435
REMARK  155  A    between atoms: _434  and  _437
REMARK  156  A    between atoms: _437  and  _438
REMARK  157  A    between atoms: _443  and  _445
REMARK  158  A    between atoms: _445  and  _446
REMARK  159  A    between atoms: _445  and  _448
REMARK  160  A    between atoms: _448  and  _449
REMARK  161  A    between atoms: _449  and  _450
REMARK  162  A    between atoms: _450  and  _451
REMARK                            x       y       z     vdW  Elec       q    Type
REMARK                         _______ _______ _______ _____ _____    ______ ____
ROOT
ATOM      1  CG  TRP A   1      15.318  44.306  10.293  0.00  0.00    -0.002 A 
ATOM      2  CD2 TRP A   1      16.033  43.398  11.177  0.00  0.00    +0.013 A 
ATOM      3  CE3 TRP A   1      17.090  43.537  12.055  0.00  0.00    +0.001 A 
ATOM      4  CZ3 TRP A   1      17.522  42.416  12.755  0.00  0.00    +0.000 A 
ATOM      5  CH2 TRP A   1      16.913  41.168  12.590  0.00  0.00    +0.001 A 
ATOM      6  CZ2 TRP A   1      15.843  40.978  11.716  0.00  0.00    +0.017 A 
ATOM      7  CE2 TRP A   1      15.407  42.085  11.015  0.00  0.00    +0.056 A 
ATOM      8  NE1 TRP A   1      14.412  42.227  10.110  0.00  0.00    -0.352 N 
ATOM      9  HE1 TRP A   1      13.787  41.460   9.790  0.00  0.00    +0.166 HD
ATOM     10  CD1 TRP A   1      14.343  43.526   9.673  0.00  0.00    +0.068 A 
ENDROOT
BRANCH   1  11
ATOM     11  CB  TRP A   1      15.597  45.770  10.110  0.00  0.00    +0.053 C 
BRANCH  11  12
ATOM     12  CA  TRP A   1      16.700  46.073   9.023  0.00  0.00    +0.137 C 
BRANCH  12  13
ATOM     13  N   TRP A   1      16.142  45.854   7.683  0.00  0.00    -0.239 NA
ATOM     14  H   TRP A   1      16.163  44.902   7.266  0.00  0.00    +0.142 HD
ENDBRANCH  12  13
BRANCH  12  15
ATOM     15  C   TRP A   1      17.947  45.279   9.201  0.00  0.00    +0.224 C 
ATOM     16  O   TRP A   1      18.144  44.246   8.578  0.00  0.00    -0.287 OA
ENDBRANCH  12  15
ENDBRANCH  11  12
ENDBRANCH   1  11
TORSDOF 4
REMARK  Name = ../refined-set-2016/4wr7/4wr7_pocket.pdb
REMARK  162 active torsions:
REMARK  status: ('A' for Active; 'I' for Inactive)
REMARK    1  A    between atoms: _1  and  _3
REMARK    2  A    between atoms: _3  and  _4
REMARK    3  A    between atoms: _3  and  _6
REMARK    4  A    between atoms: _6  and  _7
REMARK    5  A    between atoms: _17  and  _19
REMARK    6  A    between atoms: _19  and  _20
REMARK    7  A    between atoms: _19  and  _22
REMARK    8  A    between atoms: _22  and  _23
REMARK    9  A    between atoms: _28  and  _29
REMARK   10  A    between atoms: _31  and  _33
REMARK   11  A    between atoms: _33  and  _34
REMARK   12  A    between atoms: _33  and  _36
REMARK   13  A    between atoms: _36  and  _37
REMARK   14  A    between atoms: _47  and  _49
REMARK   15  A    between atoms: _49  and  _50
REMARK   16  A    between atoms: _49  and  _52
REMARK   17  A    between atoms: _52  and  _53
REMARK   18  A    between atoms: _56  and  _57
REMARK   19  A    between atoms: _62  and  _64
REMARK   20  A    between atoms: _64  and  _65
REMARK   21  A    between atoms: _64  and  _67
REMARK   22  A    between atoms: _67  and  _68
REMARK   23  A    between atoms: _73  and  _75
REMARK   24  A    between atoms: _75  and  _76
REMARK   25  A    between atoms: _75  and  _78
REMARK   26  A    between atoms: _78  and  _79
REMARK   27  A    between atoms: _81  and  _83
REMARK   28  A    between atoms: _83  and  _84
REMARK   29  A    between atoms: _83  and  _86
REMARK   30  A    between atoms: _86  and  _87
REMARK   31  A    between atoms: _92  and  _94
REMARK   32  A    between atoms: _94  and  _95
REMARK   33  A    between atoms: _94  and  _97
REMARK   34  A    between atoms: _97  and  _98
REMARK   35  A    between atoms: _103  and  _105
REMARK   36  A    between atoms: _105  and  _106
REMARK   37  A    between atoms: _105  and  _108
REMARK   38  A    between atoms: _108  and  _109
REMARK   39  A    between atoms: _115  and  _117
REMARK   40  A    between atoms: _117  and  _118
REMARK   41  A    between atoms: _117  and  _120
REMARK   42  A    between atoms: _120  and  _121
REMARK   43  A    between atoms: _121  and  _122
REMARK   44  A    between atoms: _127  and  _129
REMARK   45  A    between atoms: _129  and  _130
REMARK   46  A    between atoms: _129  and  _132
REMARK   47  A    between atoms: _132  and  _133
REMARK   48  A    between atoms: _139  and  _141
REMARK   49  A    between atoms: _152  and  _155
REMARK   50  A    between atoms: _155  and  _156
REMARK   51  A    between atoms: _164  and  _165
REMARK   52  A    between atoms: _173  and  _175
REMARK   53  A    between atoms: _175  and  _176
REMARK   54  A    between atoms: _175  and  _178
REMARK   55  A    between atoms: _178  and  _179
REMARK   56  A    between atoms: _179  and  _180
REMARK   57  A    between atoms: _183  and  _185
REMARK   58  A    between atoms: _185  and  _186
REMARK   59  A    between atoms: _185  and  _188
REMARK   60  A    between atoms: _188  and  _189
REMARK   61  A    between atoms: _194  and  _196
REMARK   62  A    between atoms: _196  and  _197
REMARK   63  A    between atoms: _196  and  _199
REMARK   64  A    between atoms: _199  and  _200
REMARK   65  A    between atoms: _200  and  _201
REMARK   66  A    between atoms: _204  and  _206
REMARK   67  A    between atoms: _206  and  _207
REMARK   68  A    between atoms: _206  and  _209
REMARK   69  A    between atoms: _209  and  _210
REMARK   70  A    between atoms: _213  and  _215
REMARK   71  A    between atoms: _215  and  _216
REMARK   72  A    between atoms: _215  and  _218
REMARK   73  A    between atoms: _218  and  _219
REMARK   74  A    between atoms: _220  and  ZN_460
REMARK   75  A    between atoms: _224  and  _226
REMARK   76  A    between atoms: _226  and  _227
REMARK   77  A    between atoms: _226  and  _229
REMARK   78  A    between atoms: _232  and  _234
REMARK   79  A    between atoms: _234  and  _235
REMARK   80  A    between atoms: _238  and  _240
REMARK   81  A    between atoms: _240  and  _241
REMARK   82  A    between atoms: _240  and  _243
REMARK   83  A    between atoms: _243  and  _244
REMARK   84  A    between atoms: _249  and  _251
REMARK   85  A    between atoms: _251  and  _252
REMARK   86  A    between atoms: _251  and  _254
REMARK   87  A    between atoms: _254  and  _255
REMARK   88  A    between atoms: _258  and  _260
REMARK   89  A    between atoms: _260  and  _261
REMARK   90  A    between atoms: _264  and  _266
REMARK   91  A    between atoms: _266  and  _267
REMARK   92  A    between atoms: _270  and  _272
REMARK   93  A    between atoms: _272  and  _273
REMARK   94  A    between atoms: _276  and  _278
REMARK   95  A    between atoms: _278  and  _279
REMARK   96  A    between atoms: _278  and  _281
REMARK   97  A    between atoms: _281  and  _282
REMARK   98  A    between atoms: _284  and  _286
REMARK   99  A    between atoms: _286  and  _287
REMARK  100  A    between atoms: _286  and  _289
REMARK  101  A    between atoms: _289  and  _290
REMARK  102  A    between atoms: _293  and  _295
REMARK  103  A    between atoms: _295  and  _296
REMARK  104  A    between atoms: _299  and  _301
REMARK  105  A    between atoms: _301  and  _302
REMARK  106  A    between atoms: _301  and  _304
REMARK  107  A    between atoms: _307  and  _309
REMARK  108  A    between atoms: _309  and  _310
REMARK  109  A    between atoms: _309  and  _312
REMARK  110  A    between atoms: _312  and  _313
REMARK  111  A    between atoms: _316  and  _318
REMARK  112  A    between atoms: _318  and  _319
REMARK  113  A    between atoms: _321  and  _323
REMARK  114  A    between atoms: _323  and  _324
REMARK  115  A    between atoms: _326  and  _328
REMARK  116  A    between atoms: _328  and  _329
REMARK  117  A    between atoms: _328  and  _331
REMARK  118  A    between atoms: _331  and  _332
REMARK  119  A    between atoms: _334  and  _336
REMARK  120  A    between atoms: _336  and  _337
REMARK  121  A    between atoms: _336  and  _339
REMARK  122  A    between atoms: _339  and  _340
REMARK  123  A    between atoms: _343  and  _345
REMARK  124  A    between atoms: _345  and  _346
REMARK  125  A    between atoms: _345  and  _348
REMARK  126  A    between atoms: _348  and  _349
REMARK  127  A    between atoms: _352  and  _354
REMARK  128  A    between atoms: _354  and  _355
REMARK  129  A    between atoms: _354  and  _357
REMARK  130  A    between atoms: _357  and  _358
REMARK  131  A    between atoms: _364  and  _365
REMARK  132  A    between atoms: _371  and  _372
REMARK  133  A    between atoms: _377  and  _379
REMARK  134  A    between atoms: _379  and  _380
REMARK  135  A    between atoms: _379  and  _382
REMARK  136  A    between atoms: _382  and  _383
REMARK  137  A    between atoms: _386  and  _388
REMARK  138  A    between atoms: _388  and  _389
REMARK  139  A    between atoms: _388  and  _391
REMARK  140  A    between atoms: _391  and  _392
REMARK  141  A    between atoms: _397  and  _398
REMARK  142  A    between atoms: _400  and  _402
REMARK  143  A    between atoms: _402  and  _403
REMARK  144  A    between atoms: _402  and  _405
REMARK  145  A    between atoms: _405  and  _406
REMARK  146  A    between atoms: _408  and  _410
REMARK  147  A    between atoms: _410  and  _411
REMARK  148  A    between atoms: _410  and  _413
REMARK  149  A    between atoms: _416  and  _418
REMARK  150  A    between atoms: _418  and  _419
REMARK  151  A    between atoms: _418  and  _421
REMARK  152  A    between atoms: _421  and  _422
REMARK  153  A    between atoms: _432  and  _434
REMARK  154  A    between atoms: _434  and  _435
REMARK  155  A    between atoms: _434  and  _437
REMARK  156  A    between atoms: _437  and  _438
REMARK  157  A    between atoms: _443  and  _445
REMARK  158  A    between atoms: _445  and  _446
REMARK  159  A    between atoms: _445  and  _448
REMARK  160  A    between atoms: _448  and  _449
REMARK  161  A    between atoms: _449  and  _450
REMARK  162  A    between atoms: _450  and  _451
REMARK                            x       y       z     vdW  Elec       q    Type
REMARK                         _______ _______ _______ _____ _____    ______ ____
ROOT
ATOM      1  CG  TYR A   1      22.206  44.145  14.431  0.00  0.00    -0.020 A 
ATOM      2  CD2 TYR A   1      21.644  44.528  15.654  0.00  0.00    -0.001 A 
ATOM      3  CE2 TYR A   1      20.697  43.716  16.269  0.00  0.00    +0.036 A 
ATOM      4  CZ  TYR A   1      20.338  42.492  15.625  0.00  0.00    +0.134 A 
ATOM      5  CE1 TYR A   1      20.861  42.141  14.420  0.00  0.00    +0.036 A 
ATOM      6  CD1 TYR A   1      21.825  42.957  13.844  0.00  0.00    -0.001 A 
ENDROOT
BRANCH   4   7
ATOM      7  OH  TYR A   1      19.388  41.676  16.273  0.00  0.00    -0.506 OA
ATOM      8  HH  TYR A   1      19.732  41.415  17.164  0.00  0.00    +0.292 HD
ENDBRANCH   4   7
BRANCH   1   9
ATOM      9  CB  TYR A   1      23.243  45.008  13.762  0.00  0.00    +0.051 C 
BRANCH   9  10
ATOM     10  CA  TYR A   1      22.548  46.156  13.022  0.00  0.00    +0.137 C 
BRANCH  10  11
ATOM     11  N   TYR A   1      21.872  45.612  11.834  0.00  0.00    -0.239 NA
ATOM     12  H   TYR A   1      22.426  45.186  11.064  0.00  0.00    +0.142 HD
ENDBRANCH  10  11
BRANCH  10  13
ATOM     13  C   TYR A   1      23.541  47.264  12.600  0.00  0.00    +0.224 C 
ATOM     14  O   TYR A   1      24.320  47.725  13.431  0.00  0.00    -0.287 OA
ENDBRANCH  10  13
ENDBRANCH   9  10
ENDBRANCH   1   9
TORSDOF 5
REMARK  Name = ../refined-set-2016/4wr7/4wr7_pocket.pdb
REMARK  162 active torsions:
REMARK  status: ('A' for Active; 'I' for Inactive)
REMARK    1  A    between atoms: _1  and  _3
REMARK    2  A    between atoms: _3  and  _4
REMARK    3  A    between atoms: _3  and  _6
REMARK    4  A    between atoms: _6  and  _7
REMARK    5  A    between atoms: _17  and  _19
REMARK    6  A    between atoms: _19  and  _20
REMARK    7  A    between atoms: _19  and  _22
REMARK    8  A    between atoms: _22  and  _23
REMARK    9  A    between atoms: _28  and  _29
REMARK   10  A    between atoms: _31  and  _33
REMARK   11  A    between atoms: _33  and  _34
REMARK   12  A    between atoms: _33  and  _36
REMARK   13  A    between atoms: _36  and  _37
REMARK   14  A    between atoms: _47  and  _49
REMARK   15  A    between atoms: _49  and  _50
REMARK   16  A    between atoms: _49  and  _52
REMARK   17  A    between atoms: _52  and  _53
REMARK   18  A    between atoms: _56  and  _57
REMARK   19  A    between atoms: _62  and  _64
REMARK   20  A    between atoms: _64  and  _65
REMARK   21  A    between atoms: _64  and  _67
REMARK   22  A    between atoms: _67  and  _68
REMARK   23  A    between atoms: _73  and  _75
REMARK   24  A    between atoms: _75  and  _76
REMARK   25  A    between atoms: _75  and  _78
REMARK   26  A    between atoms: _78  and  _79
REMARK   27  A    between atoms: _81  and  _83
REMARK   28  A    between atoms: _83  and  _84
REMARK   29  A    between atoms: _83  and  _86
REMARK   30  A    between atoms: _86  and  _87
REMARK   31  A    between atoms: _92  and  _94
REMARK   32  A    between atoms: _94  and  _95
REMARK   33  A    between atoms: _94  and  _97
REMARK   34  A    between atoms: _97  and  _98
REMARK   35  A    between atoms: _103  and  _105
REMARK   36  A    between atoms: _105  and  _106
REMARK   37  A    between atoms: _105  and  _108
REMARK   38  A    between atoms: _108  and  _109
REMARK   39  A    between atoms: _115  and  _117
REMARK   40  A    between atoms: _117  and  _118
REMARK   41  A    between atoms: _117  and  _120
REMARK   42  A    between atoms: _120  and  _121
REMARK   43  A    between atoms: _121  and  _122
REMARK   44  A    between atoms: _127  and  _129
REMARK   45  A    between atoms: _129  and  _130
REMARK   46  A    between atoms: _129  and  _132
REMARK   47  A    between atoms: _132  and  _133
REMARK   48  A    between atoms: _139  and  _141
REMARK   49  A    between atoms: _152  and  _155
REMARK   50  A    between atoms: _155  and  _156
REMARK   51  A    between atoms: _164  and  _165
REMARK   52  A    between atoms: _173  and  _175
REMARK   53  A    between atoms: _175  and  _176
REMARK   54  A    between atoms: _175  and  _178
REMARK   55  A    between atoms: _178  and  _179
REMARK   56  A    between atoms: _179  and  _180
REMARK   57  A    between atoms: _183  and  _185
REMARK   58  A    between atoms: _185  and  _186
REMARK   59  A    between atoms: _185  and  _188
REMARK   60  A    between atoms: _188  and  _189
REMARK   61  A    between atoms: _194  and  _196
REMARK   62  A    between atoms: _196  and  _197
REMARK   63  A    between atoms: _196  and  _199
REMARK   64  A    between atoms: _199  and  _200
REMARK   65  A    between atoms: _200  and  _201
REMARK   66  A    between atoms: _204  and  _206
REMARK   67  A    between atoms: _206  and  _207
REMARK   68  A    between atoms: _206  and  _209
REMARK   69  A    between atoms: _209  and  _210
REMARK   70  A    between atoms: _213  and  _215
REMARK   71  A    between atoms: _215  and  _216
REMARK   72  A    between atoms: _215  and  _218
REMARK   73  A    between atoms: _218  and  _219
REMARK   74  A    between atoms: _220  and  ZN_460
REMARK   75  A    between atoms: _224  and  _226
REMARK   76  A    between atoms: _226  and  _227
REMARK   77  A    between atoms: _226  and  _229
REMARK   78  A    between atoms: _232  and  _234
REMARK   79  A    between atoms: _234  and  _235
REMARK   80  A    between atoms: _238  and  _240
REMARK   81  A    between atoms: _240  and  _241
REMARK   82  A    between atoms: _240  and  _243
REMARK   83  A    between atoms: _243  and  _244
REMARK   84  A    between atoms: _249  and  _251
REMARK   85  A    between atoms: _251  and  _252
REMARK   86  A    between atoms: _251  and  _254
REMARK   87  A    between atoms: _254  and  _255
REMARK   88  A    between atoms: _258  and  _260
REMARK   89  A    between atoms: _260  and  _261
REMARK   90  A    between atoms: _264  and  _266
REMARK   91  A    between atoms: _266  and  _267
REMARK   92  A    between atoms: _270  and  _272
REMARK   93  A    between atoms: _272  and  _273
REMARK   94  A    between atoms: _276  and  _278
REMARK   95  A    between atoms: _278  and  _279
REMARK   96  A    between atoms: _278  and  _281
REMARK   97  A    between atoms: _281  and  _282
REMARK   98  A    between atoms: _284  and  _286
REMARK   99  A    between atoms: _286  and  _287
REMARK  100  A    between atoms: _286  and  _289
REMARK  101  A    between atoms: _289  and  _290
REMARK  102  A    between atoms: _293  and  _295
REMARK  103  A    between atoms: _295  and  _296
REMARK  104  A    between atoms: _299  and  _301
REMARK  105  A    between atoms: _301  and  _302
REMARK  106  A    between atoms: _301  and  _304
REMARK  107  A    between atoms: _307  and  _309
REMARK  108  A    between atoms: _309  and  _310
REMARK  109  A    between atoms: _309  and  _312
REMARK  110  A    between atoms: _312  and  _313
REMARK  111  A    between atoms: _316  and  _318
REMARK  112  A    between atoms: _318  and  _319
REMARK  113  A    between atoms: _321  and  _323
REMARK  114  A    between atoms: _323  and  _324
REMARK  115  A    between atoms: _326  and  _328
REMARK  116  A    between atoms: _328  and  _329
REMARK  117  A    between atoms: _328  and  _331
REMARK  118  A    between atoms: _331  and  _332
REMARK  119  A    between atoms: _334  and  _336
REMARK  120  A    between atoms: _336  and  _337
REMARK  121  A    between atoms: _336  and  _339
REMARK  122  A    between atoms: _339  and  _340
REMARK  123  A    between atoms: _343  and  _345
REMARK  124  A    between atoms: _345  and  _346
REMARK  125  A    between atoms: _345  and  _348
REMARK  126  A    between atoms: _348  and  _349
REMARK  127  A    between atoms: _352  and  _354
REMARK  128  A    between atoms: _354  and  _355
REMARK  129  A    between atoms: _354  and  _357
REMARK  130  A    between atoms: _357  and  _358
REMARK  131  A    between atoms: _364  and  _365
REMARK  132  A    between atoms: _371  and  _372
REMARK  133  A    between atoms: _377  and  _379
REMARK  134  A    between atoms: _379  and  _380
REMARK  135  A    between atoms: _379  and  _382
REMARK  136  A    between atoms: _382  and  _383
REMARK  137  A    between atoms: _386  and  _388
REMARK  138  A    between atoms: _388  and  _389
REMARK  139  A    between atoms: _388  and  _391
REMARK  140  A    between atoms: _391  and  _392
REMARK  141  A    between atoms: _397  and  _398
REMARK  142  A    between atoms: _400  and  _402
REMARK  143  A    between atoms: _402  and  _403
REMARK  144  A    between atoms: _402  and  _405
REMARK  145  A    between atoms: _405  and  _406
REMARK  146  A    between atoms: _408  and  _410
REMARK  147  A    between atoms: _410  and  _411
REMARK  148  A    between atoms: _410  and  _413
REMARK  149  A    between atoms: _416  and  _418
REMARK  150  A    between atoms: _418  and  _419
REMARK  151  A    between atoms: _418  and  _421
REMARK  152  A    between atoms: _421  and  _422
REMARK  153  A    between atoms: _432  and  _434
REMARK  154  A    between atoms: _434  and  _435
REMARK  155  A    between atoms: _434  and  _437
REMARK  156  A    between atoms: _437  and  _438
REMARK  157  A    between atoms: _443  and  _445
REMARK  158  A    between atoms: _445  and  _446
REMARK  159  A    between atoms: _445  and  _448
REMARK  160  A    between atoms: _448  and  _449
REMARK  161  A    between atoms: _449  and  _450
REMARK  162  A    between atoms: _450  and  _451
REMARK                            x       y       z     vdW  Elec       q    Type
REMARK                         _______ _______ _______ _____ _____    ______ ____
ROOT
ATOM      1  CG  TRP A   1      15.381  48.318  14.314  0.00  0.00    -0.002 A 
ATOM      2  CD2 TRP A   1      15.861  47.280  15.222  0.00  0.00    +0.013 A 
ATOM      3  CE3 TRP A   1      15.485  46.850  16.478  0.00  0.00    +0.001 A 
ATOM      4  CZ3 TRP A   1      16.189  45.798  17.065  0.00  0.00    +0.000 A 
ATOM      5  CH2 TRP A   1      17.254  45.178  16.408  0.00  0.00    +0.001 A 
ATOM      6  CZ2 TRP A   1      17.669  45.574  15.134  0.00  0.00    +0.017 A 
ATOM      7  CE2 TRP A   1      16.976  46.617  14.545  0.00  0.00    +0.056 A 
ATOM      8  NE1 TRP A   1      17.130  47.225  13.347  0.00  0.00    -0.352 N 
ATOM      9  HE1 TRP A   1      17.852  46.971  12.642  0.00  0.00    +0.166 HD
ATOM     10  CD1 TRP A   1      16.199  48.226  13.190  0.00  0.00    +0.068 A 
ENDROOT
BRANCH   1  11
ATOM     11  CB  TRP A   1      14.231  49.259  14.583  0.00  0.00    +0.053 C 
BRANCH  11  12
ATOM     12  CA  TRP A   1      14.097  50.460  13.682  0.00  0.00    +0.137 C 
BRANCH  12  13
ATOM     13  N   TRP A   1      15.170  51.448  13.900  0.00  0.00    -0.239 NA
ATOM     14  H   TRP A   1      15.883  51.273  14.636  0.00  0.00    +0.142 HD
ENDBRANCH  12  13
BRANCH  12  15
ATOM     15  C   TRP A   1      12.695  50.953  13.780  0.00  0.00    +0.224 C 
ATOM     16  O   TRP A   1      11.790  50.342  13.157  0.00  0.00    -0.287 OA
ENDBRANCH  12  15
ENDBRANCH  11  12
ENDBRANCH   1  11
TORSDOF 4
REMARK  Name = ../refined-set-2016/4wr7/4wr7_pocket.pdb
REMARK  162 active torsions:
REMARK  status: ('A' for Active; 'I' for Inactive)
REMARK    1  A    between atoms: _1  and  _3
REMARK    2  A    between atoms: _3  and  _4
REMARK    3  A    between atoms: _3  and  _6
REMARK    4  A    between atoms: _6  and  _7
REMARK    5  A    between atoms: _17  and  _19
REMARK    6  A    between atoms: _19  and  _20
REMARK    7  A    between atoms: _19  and  _22
REMARK    8  A    between atoms: _22  and  _23
REMARK    9  A    between atoms: _28  and  _29
REMARK   10  A    between atoms: _31  and  _33
REMARK   11  A    between atoms: _33  and  _34
REMARK   12  A    between atoms: _33  and  _36
REMARK   13  A    between atoms: _36  and  _37
REMARK   14  A    between atoms: _47  and  _49
REMARK   15  A    between atoms: _49  and  _50
REMARK   16  A    between atoms: _49  and  _52
REMARK   17  A    between atoms: _52  and  _53
REMARK   18  A    between atoms: _56  and  _57
REMARK   19  A    between atoms: _62  and  _64
REMARK   20  A    between atoms: _64  and  _65
REMARK   21  A    between atoms: _64  and  _67
REMARK   22  A    between atoms: _67  and  _68
REMARK   23  A    between atoms: _73  and  _75
REMARK   24  A    between atoms: _75  and  _76
REMARK   25  A    between atoms: _75  and  _78
REMARK   26  A    between atoms: _78  and  _79
REMARK   27  A    between atoms: _81  and  _83
REMARK   28  A    between atoms: _83  and  _84
REMARK   29  A    between atoms: _83  and  _86
REMARK   30  A    between atoms: _86  and  _87
REMARK   31  A    between atoms: _92  and  _94
REMARK   32  A    between atoms: _94  and  _95
REMARK   33  A    between atoms: _94  and  _97
REMARK   34  A    between atoms: _97  and  _98
REMARK   35  A    between atoms: _103  and  _105
REMARK   36  A    between atoms: _105  and  _106
REMARK   37  A    between atoms: _105  and  _108
REMARK   38  A    between atoms: _108  and  _109
REMARK   39  A    between atoms: _115  and  _117
REMARK   40  A    between atoms: _117  and  _118
REMARK   41  A    between atoms: _117  and  _120
REMARK   42  A    between atoms: _120  and  _121
REMARK   43  A    between atoms: _121  and  _122
REMARK   44  A    between atoms: _127  and  _129
REMARK   45  A    between atoms: _129  and  _130
REMARK   46  A    between atoms: _129  and  _132
REMARK   47  A    between atoms: _132  and  _133
REMARK   48  A    between atoms: _139  and  _141
REMARK   49  A    between atoms: _152  and  _155
REMARK   50  A    between atoms: _155  and  _156
REMARK   51  A    between atoms: _164  and  _165
REMARK   52  A    between atoms: _173  and  _175
REMARK   53  A    between atoms: _175  and  _176
REMARK   54  A    between atoms: _175  and  _178
REMARK   55  A    between atoms: _178  and  _179
REMARK   56  A    between atoms: _179  and  _180
REMARK   57  A    between atoms: _183  and  _185
REMARK   58  A    between atoms: _185  and  _186
REMARK   59  A    between atoms: _185  and  _188
REMARK   60  A    between atoms: _188  and  _189
REMARK   61  A    between atoms: _194  and  _196
REMARK   62  A    between atoms: _196  and  _197
REMARK   63  A    between atoms: _196  and  _199
REMARK   64  A    between atoms: _199  and  _200
REMARK   65  A    between atoms: _200  and  _201
REMARK   66  A    between atoms: _204  and  _206
REMARK   67  A    between atoms: _206  and  _207
REMARK   68  A    between atoms: _206  and  _209
REMARK   69  A    between atoms: _209  and  _210
REMARK   70  A    between atoms: _213  and  _215
REMARK   71  A    between atoms: _215  and  _216
REMARK   72  A    between atoms: _215  and  _218
REMARK   73  A    between atoms: _218  and  _219
REMARK   74  A    between atoms: _220  and  ZN_460
REMARK   75  A    between atoms: _224  and  _226
REMARK   76  A    between atoms: _226  and  _227
REMARK   77  A    between atoms: _226  and  _229
REMARK   78  A    between atoms: _232  and  _234
REMARK   79  A    between atoms: _234  and  _235
REMARK   80  A    between atoms: _238  and  _240
REMARK   81  A    between atoms: _240  and  _241
REMARK   82  A    between atoms: _240  and  _243
REMARK   83  A    between atoms: _243  and  _244
REMARK   84  A    between atoms: _249  and  _251
REMARK   85  A    between atoms: _251  and  _252
REMARK   86  A    between atoms: _251  and  _254
REMARK   87  A    between atoms: _254  and  _255
REMARK   88  A    between atoms: _258  and  _260
REMARK   89  A    between atoms: _260  and  _261
REMARK   90  A    between atoms: _264  and  _266
REMARK   91  A    between atoms: _266  and  _267
REMARK   92  A    between atoms: _270  and  _272
REMARK   93  A    between atoms: _272  and  _273
REMARK   94  A    between atoms: _276  and  _278
REMARK   95  A    between atoms: _278  and  _279
REMARK   96  A    between atoms: _278  and  _281
REMARK   97  A    between atoms: _281  and  _282
REMARK   98  A    between atoms: _284  and  _286
REMARK   99  A    between atoms: _286  and  _287
REMARK  100  A    between atoms: _286  and  _289
REMARK  101  A    between atoms: _289  and  _290
REMARK  102  A    between atoms: _293  and  _295
REMARK  103  A    between atoms: _295  and  _296
REMARK  104  A    between atoms: _299  and  _301
REMARK  105  A    between atoms: _301  and  _302
REMARK  106  A    between atoms: _301  and  _304
REMARK  107  A    between atoms: _307  and  _309
REMARK  108  A    between atoms: _309  and  _310
REMARK  109  A    between atoms: _309  and  _312
REMARK  110  A    between atoms: _312  and  _313
REMARK  111  A    between atoms: _316  and  _318
REMARK  112  A    between atoms: _318  and  _319
REMARK  113  A    between atoms: _321  and  _323
REMARK  114  A    between atoms: _323  and  _324
REMARK  115  A    between atoms: _326  and  _328
REMARK  116  A    between atoms: _328  and  _329
REMARK  117  A    between atoms: _328  and  _331
REMARK  118  A    between atoms: _331  and  _332
REMARK  119  A    between atoms: _334  and  _336
REMARK  120  A    between atoms: _336  and  _337
REMARK  121  A    between atoms: _336  and  _339
REMARK  122  A    between atoms: _339  and  _340
REMARK  123  A    between atoms: _343  and  _345
REMARK  124  A    between atoms: _345  and  _346
REMARK  125  A    between atoms: _345  and  _348
REMARK  126  A    between atoms: _348  and  _349
REMARK  127  A    between atoms: _352  and  _354
REMARK  128  A    between atoms: _354  and  _355
REMARK  129  A    between atoms: _354  and  _357
REMARK  130  A    between atoms: _357  and  _358
REMARK  131  A    between atoms: _364  and  _365
REMARK  132  A    between atoms: _371  and  _372
REMARK  133  A    between atoms: _377  and  _379
REMARK  134  A    between atoms: _379  and  _380
REMARK  135  A    between atoms: _379  and  _382
REMARK  136  A    between atoms: _382  and  _383
REMARK  137  A    between atoms: _386  and  _388
REMARK  138  A    between atoms: _388  and  _389
REMARK  139  A    between atoms: _388  and  _391
REMARK  140  A    between atoms: _391  and  _392
REMARK  141  A    between atoms: _397  and  _398
REMARK  142  A    between atoms: _400  and  _402
REMARK  143  A    between atoms: _402  and  _403
REMARK  144  A    between atoms: _402  and  _405
REMARK  145  A    between atoms: _405  and  _406
REMARK  146  A    between atoms: _408  and  _410
REMARK  147  A    between atoms: _410  and  _411
REMARK  148  A    between atoms: _410  and  _413
REMARK  149  A    between atoms: _416  and  _418
REMARK  150  A    between atoms: _418  and  _419
REMARK  151  A    between atoms: _418  and  _421
REMARK  152  A    between atoms: _421  and  _422
REMARK  153  A    between atoms: _432  and  _434
REMARK  154  A    between atoms: _434  and  _435
REMARK  155  A    between atoms: _434  and  _437
REMARK  156  A    between atoms: _437  and  _438
REMARK  157  A    between atoms: _443  and  _445
REMARK  158  A    between atoms: _445  and  _446
REMARK  159  A    between atoms: _445  and  _448
REMARK  160  A    between atoms: _448  and  _449
REMARK  161  A    between atoms: _449  and  _450
REMARK  162  A    between atoms: _450  and  _451
REMARK                            x       y       z     vdW  Elec       q    Type
REMARK                         _______ _______ _______ _____ _____    ______ ____
ROOT
ATOM      1  C   SER A   1      14.508  44.185  24.331  0.00  0.00    +0.244 C 
ATOM      2  N   PRO A   2      15.746  44.057  24.869  0.00  0.00    -0.273 N 
ATOM      3  CA  PRO A   2      16.001  43.676  26.230  0.00  0.00    +0.140 C 
ATOM      4  CB  PRO A   2      17.477  43.276  26.145  0.00  0.00    +0.030 C 
ATOM      5  CG  PRO A   2      18.091  44.230  25.182  0.00  0.00    +0.024 C 
ATOM      6  CD  PRO A   2      16.973  44.379  24.108  0.00  0.00    +0.094 C 
ATOM      7  O   SER A   1      14.410  44.502  23.182  0.00  0.00    -0.273 OA
ENDROOT
BRANCH   3   8
ATOM      8  C   PRO A   2      15.880  44.857  27.210  0.00  0.00    +0.227 C 
ATOM      9  O   PRO A   2      15.630  45.969  26.821  0.00  0.00    -0.286 OA
ENDBRANCH   3   8
BRANCH   1  10
ATOM     10  CA  SER A   1      13.285  43.982  25.231  0.00  0.00    +0.175 C 
BRANCH  10  11
ATOM     11  N   SER A   1      12.134  44.740  24.622  0.00  0.00    -0.236 NA
ATOM     12  H   SER A   1      11.940  44.632  23.606  0.00  0.00    +0.142 HD
ENDBRANCH  10  11
BRANCH  10  13
ATOM     13  CB  SER A   1      13.017  42.498  25.273  0.00  0.00    +0.163 C 
BRANCH  13  14
ATOM     14  OG  SER A   1      11.929  42.290  26.133  0.00  0.00    -0.380 OA
ATOM     15  H   SER A   1      12.155  42.627  27.036  0.00  0.00    +0.211 HD
ENDBRANCH  13  14
ENDBRANCH  10  13
ENDBRANCH   1  10
TORSDOF 5
REMARK  Name = ../refined-set-2016/4wr7/4wr7_pocket.pdb
REMARK  162 active torsions:
REMARK  status: ('A' for Active; 'I' for Inactive)
REMARK    1  A    between atoms: _1  and  _3
REMARK    2  A    between atoms: _3  and  _4
REMARK    3  A    between atoms: _3  and  _6
REMARK    4  A    between atoms: _6  and  _7
REMARK    5  A    between atoms: _17  and  _19
REMARK    6  A    between atoms: _19  and  _20
REMARK    7  A    between atoms: _19  and  _22
REMARK    8  A    between atoms: _22  and  _23
REMARK    9  A    between atoms: _28  and  _29
REMARK   10  A    between atoms: _31  and  _33
REMARK   11  A    between atoms: _33  and  _34
REMARK   12  A    between atoms: _33  and  _36
REMARK   13  A    between atoms: _36  and  _37
REMARK   14  A    between atoms: _47  and  _49
REMARK   15  A    between atoms: _49  and  _50
REMARK   16  A    between atoms: _49  and  _52
REMARK   17  A    between atoms: _52  and  _53
REMARK   18  A    between atoms: _56  and  _57
REMARK   19  A    between atoms: _62  and  _64
REMARK   20  A    between atoms: _64  and  _65
REMARK   21  A    between atoms: _64  and  _67
REMARK   22  A    between atoms: _67  and  _68
REMARK   23  A    between atoms: _73  and  _75
REMARK   24  A    between atoms: _75  and  _76
REMARK   25  A    between atoms: _75  and  _78
REMARK   26  A    between atoms: _78  and  _79
REMARK   27  A    between atoms: _81  and  _83
REMARK   28  A    between atoms: _83  and  _84
REMARK   29  A    between atoms: _83  and  _86
REMARK   30  A    between atoms: _86  and  _87
REMARK   31  A    between atoms: _92  and  _94
REMARK   32  A    between atoms: _94  and  _95
REMARK   33  A    between atoms: _94  and  _97
REMARK   34  A    between atoms: _97  and  _98
REMARK   35  A    between atoms: _103  and  _105
REMARK   36  A    between atoms: _105  and  _106
REMARK   37  A    between atoms: _105  and  _108
REMARK   38  A    between atoms: _108  and  _109
REMARK   39  A    between atoms: _115  and  _117
REMARK   40  A    between atoms: _117  and  _118
REMARK   41  A    between atoms: _117  and  _120
REMARK   42  A    between atoms: _120  and  _121
REMARK   43  A    between atoms: _121  and  _122
REMARK   44  A    between atoms: _127  and  _129
REMARK   45  A    between atoms: _129  and  _130
REMARK   46  A    between atoms: _129  and  _132
REMARK   47  A    between atoms: _132  and  _133
REMARK   48  A    between atoms: _139  and  _141
REMARK   49  A    between atoms: _152  and  _155
REMARK   50  A    between atoms: _155  and  _156
REMARK   51  A    between atoms: _164  and  _165
REMARK   52  A    between atoms: _173  and  _175
REMARK   53  A    between atoms: _175  and  _176
REMARK   54  A    between atoms: _175  and  _178
REMARK   55  A    between atoms: _178  and  _179
REMARK   56  A    between atoms: _179  and  _180
REMARK   57  A    between atoms: _183  and  _185
REMARK   58  A    between atoms: _185  and  _186
REMARK   59  A    between atoms: _185  and  _188
REMARK   60  A    between atoms: _188  and  _189
REMARK   61  A    between atoms: _194  and  _196
REMARK   62  A    between atoms: _196  and  _197
REMARK   63  A    between atoms: _196  and  _199
REMARK   64  A    between atoms: _199  and  _200
REMARK   65  A    between atoms: _200  and  _201
REMARK   66  A    between atoms: _204  and  _206
REMARK   67  A    between atoms: _206  and  _207
REMARK   68  A    between atoms: _206  and  _209
REMARK   69  A    between atoms: _209  and  _210
REMARK   70  A    between atoms: _213  and  _215
REMARK   71  A    between atoms: _215  and  _216
REMARK   72  A    between atoms: _215  and  _218
REMARK   73  A    between atoms: _218  and  _219
REMARK   74  A    between atoms: _220  and  ZN_460
REMARK   75  A    between atoms: _224  and  _226
REMARK   76  A    between atoms: _226  and  _227
REMARK   77  A    between atoms: _226  and  _229
REMARK   78  A    between atoms: _232  and  _234
REMARK   79  A    between atoms: _234  and  _235
REMARK   80  A    between atoms: _238  and  _240
REMARK   81  A    between atoms: _240  and  _241
REMARK   82  A    between atoms: _240  and  _243
REMARK   83  A    between atoms: _243  and  _244
REMARK   84  A    between atoms: _249  and  _251
REMARK   85  A    between atoms: _251  and  _252
REMARK   86  A    between atoms: _251  and  _254
REMARK   87  A    between atoms: _254  and  _255
REMARK   88  A    between atoms: _258  and  _260
REMARK   89  A    between atoms: _260  and  _261
REMARK   90  A    between atoms: _264  and  _266
REMARK   91  A    between atoms: _266  and  _267
REMARK   92  A    between atoms: _270  and  _272
REMARK   93  A    between atoms: _272  and  _273
REMARK   94  A    between atoms: _276  and  _278
REMARK   95  A    between atoms: _278  and  _279
REMARK   96  A    between atoms: _278  and  _281
REMARK   97  A    between atoms: _281  and  _282
REMARK   98  A    between atoms: _284  and  _286
REMARK   99  A    between atoms: _286  and  _287
REMARK  100  A    between atoms: _286  and  _289
REMARK  101  A    between atoms: _289  and  _290
REMARK  102  A    between atoms: _293  and  _295
REMARK  103  A    between atoms: _295  and  _296
REMARK  104  A    between atoms: _299  and  _301
REMARK  105  A    between atoms: _301  and  _302
REMARK  106  A    between atoms: _301  and  _304
REMARK  107  A    between atoms: _307  and  _309
REMARK  108  A    between atoms: _309  and  _310
REMARK  109  A    between atoms: _309  and  _312
REMARK  110  A    between atoms: _312  and  _313
REMARK  111  A    between atoms: _316  and  _318
REMARK  112  A    between atoms: _318  and  _319
REMARK  113  A    between atoms: _321  and  _323
REMARK  114  A    between atoms: _323  and  _324
REMARK  115  A    between atoms: _326  and  _328
REMARK  116  A    between atoms: _328  and  _329
REMARK  117  A    between atoms: _328  and  _331
REMARK  118  A    between atoms: _331  and  _332
REMARK  119  A    between atoms: _334  and  _336
REMARK  120  A    between atoms: _336  and  _337
REMARK  121  A    between atoms: _336  and  _339
REMARK  122  A    between atoms: _339  and  _340
REMARK  123  A    between atoms: _343  and  _345
REMARK  124  A    between atoms: _345  and  _346
REMARK  125  A    between atoms: _345  and  _348
REMARK  126  A    between atoms: _348  and  _349
REMARK  127  A    between atoms: _352  and  _354
REMARK  128  A    between atoms: _354  and  _355
REMARK  129  A    between atoms: _354  and  _357
REMARK  130  A    between atoms: _357  and  _358
REMARK  131  A    between atoms: _364  and  _365
REMARK  132  A    between atoms: _371  and  _372
REMARK  133  A    between atoms: _377  and  _379
REMARK  134  A    between atoms: _379  and  _380
REMARK  135  A    between atoms: _379  and  _382
REMARK  136  A    between atoms: _382  and  _383
REMARK  137  A    between atoms: _386  and  _388
REMARK  138  A    between atoms: _388  and  _389
REMARK  139  A    between atoms: _388  and  _391
REMARK  140  A    between atoms: _391  and  _392
REMARK  141  A    between atoms: _397  and  _398
REMARK  142  A    between atoms: _400  and  _402
REMARK  143  A    between atoms: _402  and  _403
REMARK  144  A    between atoms: _402  and  _405
REMARK  145  A    between atoms: _405  and  _406
REMARK  146  A    between atoms: _408  and  _410
REMARK  147  A    between atoms: _410  and  _411
REMARK  148  A    between atoms: _410  and  _413
REMARK  149  A    between atoms: _416  and  _418
REMARK  150  A    between atoms: _418  and  _419
REMARK  151  A    between atoms: _418  and  _421
REMARK  152  A    between atoms: _421  and  _422
REMARK  153  A    between atoms: _432  and  _434
REMARK  154  A    between atoms: _434  and  _435
REMARK  155  A    between atoms: _434  and  _437
REMARK  156  A    between atoms: _437  and  _438
REMARK  157  A    between atoms: _443  and  _445
REMARK  158  A    between atoms: _445  and  _446
REMARK  159  A    between atoms: _445  and  _448
REMARK  160  A    between atoms: _448  and  _449
REMARK  161  A    between atoms: _449  and  _450
REMARK  162  A    between atoms: _450  and  _451
REMARK                            x       y       z     vdW  Elec       q    Type
REMARK                         _______ _______ _______ _____ _____    ______ ____
ROOT
ATOM      1  C   HIS A   1      22.789  37.980  12.199  0.00  0.00    +0.238 C 
ATOM      2  O   HIS A   1      23.307  38.535  13.209  0.00  0.00    -0.274 OA
ATOM      3  N   SER A   2      22.590  36.693  12.090  0.00  0.00    -0.300 N 
ATOM      4  H   SER A   2      22.241  36.342  11.175  0.00  0.00    +0.150 HD
ENDROOT
BRANCH   1   5
ATOM      5  CA  HIS A   1      22.422  38.829  11.005  0.00  0.00    +0.151 C 
BRANCH   5   6
ATOM      6  N   HIS A   1      22.093  38.048   9.777  0.00  0.00    -0.238 NA
ATOM      7  H   HIS A   1      21.146  37.633   9.670  0.00  0.00    +0.142 HD
ENDBRANCH   5   6
BRANCH   5   8
ATOM      8  CB  HIS A   1      21.267  39.695  11.320  0.00  0.00    +0.074 C 
BRANCH   8   9
ATOM      9  CG  HIS A   1      20.044  38.918  11.690  0.00  0.00    +0.082 A 
ATOM     10  ND1 HIS A   1      19.772  38.488  12.969  0.00  0.00    -0.227 NA
ATOM     11  CE1 HIS A   1      18.586  37.877  12.964  0.00  0.00    +0.199 A 
ATOM     12  NE2 HIS A   1      18.098  37.883  11.694  0.00  0.00    -0.221 NA
ATOM     13  CD2 HIS A   1      18.943  38.548  10.908  0.00  0.00    +0.115 A 
ENDBRANCH   8   9
ENDBRANCH   5   8
ENDBRANCH   1   5
BRANCH   3  14
ATOM     14  CA  SER A   2      22.816  35.701  13.144  0.00  0.00    +0.134 C 
BRANCH  14  15
ATOM     15  CB  SER A   2      22.769  34.331  12.564  0.00  0.00    +0.204 C 
ATOM     16  OG  SER A   2      22.813  34.127  11.294  0.00  0.00    -0.218 OA
ENDBRANCH  14  15
BRANCH  14  17
ATOM     17  C   SER A   2      21.666  35.875  14.192  0.00  0.00    +0.159 C 
BRANCH  17  18
ATOM     18  O   SER A   2      22.074  35.182  15.381  0.00  0.00    -0.380 OA
ATOM     19  H   SER A   2      21.369  35.269  16.071  0.00  0.00    +0.211 HD
ENDBRANCH  17  18
ENDBRANCH  14  17
ENDBRANCH   3  14
TORSDOF 8
REMARK  Name = ../refined-set-2016/4wr7/4wr7_pocket.pdb
REMARK  162 active torsions:
REMARK  status: ('A' for Active; 'I' for Inactive)
REMARK    1  A    between atoms: _1  and  _3
REMARK    2  A    between atoms: _3  and  _4
REMARK    3  A    between atoms: _3  and  _6
REMARK    4  A    between atoms: _6  and  _7
REMARK    5  A    between atoms: _17  and  _19
REMARK    6  A    between atoms: _19  and  _20
REMARK    7  A    between atoms: _19  and  _22
REMARK    8  A    between atoms: _22  and  _23
REMARK    9  A    between atoms: _28  and  _29
REMARK   10  A    between atoms: _31  and  _33
REMARK   11  A    between atoms: _33  and  _34
REMARK   12  A    between atoms: _33  and  _36
REMARK   13  A    between atoms: _36  and  _37
REMARK   14  A    between atoms: _47  and  _49
REMARK   15  A    between atoms: _49  and  _50
REMARK   16  A    between atoms: _49  and  _52
REMARK   17  A    between atoms: _52  and  _53
REMARK   18  A    between atoms: _56  and  _57
REMARK   19  A    between atoms: _62  and  _64
REMARK   20  A    between atoms: _64  and  _65
REMARK   21  A    between atoms: _64  and  _67
REMARK   22  A    between atoms: _67  and  _68
REMARK   23  A    between atoms: _73  and  _75
REMARK   24  A    between atoms: _75  and  _76
REMARK   25  A    between atoms: _75  and  _78
REMARK   26  A    between atoms: _78  and  _79
REMARK   27  A    between atoms: _81  and  _83
REMARK   28  A    between atoms: _83  and  _84
REMARK   29  A    between atoms: _83  and  _86
REMARK   30  A    between atoms: _86  and  _87
REMARK   31  A    between atoms: _92  and  _94
REMARK   32  A    between atoms: _94  and  _95
REMARK   33  A    between atoms: _94  and  _97
REMARK   34  A    between atoms: _97  and  _98
REMARK   35  A    between atoms: _103  and  _105
REMARK   36  A    between atoms: _105  and  _106
REMARK   37  A    between atoms: _105  and  _108
REMARK   38  A    between atoms: _108  and  _109
REMARK   39  A    between atoms: _115  and  _117
REMARK   40  A    between atoms: _117  and  _118
REMARK   41  A    between atoms: _117  and  _120
REMARK   42  A    between atoms: _120  and  _121
REMARK   43  A    between atoms: _121  and  _122
REMARK   44  A    between atoms: _127  and  _129
REMARK   45  A    between atoms: _129  and  _130
REMARK   46  A    between atoms: _129  and  _132
REMARK   47  A    between atoms: _132  and  _133
REMARK   48  A    between atoms: _139  and  _141
REMARK   49  A    between atoms: _152  and  _155
REMARK   50  A    between atoms: _155  and  _156
REMARK   51  A    between atoms: _164  and  _165
REMARK   52  A    between atoms: _173  and  _175
REMARK   53  A    between atoms: _175  and  _176
REMARK   54  A    between atoms: _175  and  _178
REMARK   55  A    between atoms: _178  and  _179
REMARK   56  A    between atoms: _179  and  _180
REMARK   57  A    between atoms: _183  and  _185
REMARK   58  A    between atoms: _185  and  _186
REMARK   59  A    between atoms: _185  and  _188
REMARK   60  A    between atoms: _188  and  _189
REMARK   61  A    between atoms: _194  and  _196
REMARK   62  A    between atoms: _196  and  _197
REMARK   63  A    between atoms: _196  and  _199
REMARK   64  A    between atoms: _199  and  _200
REMARK   65  A    between atoms: _200  and  _201
REMARK   66  A    between atoms: _204  and  _206
REMARK   67  A    between atoms: _206  and  _207
REMARK   68  A    between atoms: _206  and  _209
REMARK   69  A    between atoms: _209  and  _210
REMARK   70  A    between atoms: _213  and  _215
REMARK   71  A    between atoms: _215  and  _216
REMARK   72  A    between atoms: _215  and  _218
REMARK   73  A    between atoms: _218  and  _219
REMARK   74  A    between atoms: _220  and  ZN_460
REMARK   75  A    between atoms: _224  and  _226
REMARK   76  A    between atoms: _226  and  _227
REMARK   77  A    between atoms: _226  and  _229
REMARK   78  A    between atoms: _232  and  _234
REMARK   79  A    between atoms: _234  and  _235
REMARK   80  A    between atoms: _238  and  _240
REMARK   81  A    between atoms: _240  and  _241
REMARK   82  A    between atoms: _240  and  _243
REMARK   83  A    between atoms: _243  and  _244
REMARK   84  A    between atoms: _249  and  _251
REMARK   85  A    between atoms: _251  and  _252
REMARK   86  A    between atoms: _251  and  _254
REMARK   87  A    between atoms: _254  and  _255
REMARK   88  A    between atoms: _258  and  _260
REMARK   89  A    between atoms: _260  and  _261
REMARK   90  A    between atoms: _264  and  _266
REMARK   91  A    between atoms: _266  and  _267
REMARK   92  A    between atoms: _270  and  _272
REMARK   93  A    between atoms: _272  and  _273
REMARK   94  A    between atoms: _276  and  _278
REMARK   95  A    between atoms: _278  and  _279
REMARK   96  A    between atoms: _278  and  _281
REMARK   97  A    between atoms: _281  and  _282
REMARK   98  A    between atoms: _284  and  _286
REMARK   99  A    between atoms: _286  and  _287
REMARK  100  A    between atoms: _286  and  _289
REMARK  101  A    between atoms: _289  and  _290
REMARK  102  A    between atoms: _293  and  _295
REMARK  103  A    between atoms: _295  and  _296
REMARK  104  A    between atoms: _299  and  _301
REMARK  105  A    between atoms: _301  and  _302
REMARK  106  A    between atoms: _301  and  _304
REMARK  107  A    between atoms: _307  and  _309
REMARK  108  A    between atoms: _309  and  _310
REMARK  109  A    between atoms: _309  and  _312
REMARK  110  A    between atoms: _312  and  _313
REMARK  111  A    between atoms: _316  and  _318
REMARK  112  A    between atoms: _318  and  _319
REMARK  113  A    between atoms: _321  and  _323
REMARK  114  A    between atoms: _323  and  _324
REMARK  115  A    between atoms: _326  and  _328
REMARK  116  A    between atoms: _328  and  _329
REMARK  117  A    between atoms: _328  and  _331
REMARK  118  A    between atoms: _331  and  _332
REMARK  119  A    between atoms: _334  and  _336
REMARK  120  A    between atoms: _336  and  _337
REMARK  121  A    between atoms: _336  and  _339
REMARK  122  A    between atoms: _339  and  _340
REMARK  123  A    between atoms: _343  and  _345
REMARK  124  A    between atoms: _345  and  _346
REMARK  125  A    between atoms: _345  and  _348
REMARK  126  A    between atoms: _348  and  _349
REMARK  127  A    between atoms: _352  and  _354
REMARK  128  A    between atoms: _354  and  _355
REMARK  129  A    between atoms: _354  and  _357
REMARK  130  A    between atoms: _357  and  _358
REMARK  131  A    between atoms: _364  and  _365
REMARK  132  A    between atoms: _371  and  _372
REMARK  133  A    between atoms: _377  and  _379
REMARK  134  A    between atoms: _379  and  _380
REMARK  135  A    between atoms: _379  and  _382
REMARK  136  A    between atoms: _382  and  _383
REMARK  137  A    between atoms: _386  and  _388
REMARK  138  A    between atoms: _388  and  _389
REMARK  139  A    between atoms: _388  and  _391
REMARK  140  A    between atoms: _391  and  _392
REMARK  141  A    between atoms: _397  and  _398
REMARK  142  A    between atoms: _400  and  _402
REMARK  143  A    between atoms: _402  and  _403
REMARK  144  A    between atoms: _402  and  _405
REMARK  145  A    between atoms: _405  and  _406
REMARK  146  A    between atoms: _408  and  _410
REMARK  147  A    between atoms: _410  and  _411
REMARK  148  A    between atoms: _410  and  _413
REMARK  149  A    between atoms: _416  and  _418
REMARK  150  A    between atoms: _418  and  _419
REMARK  151  A    between atoms: _418  and  _421
REMARK  152  A    between atoms: _421  and  _422
REMARK  153  A    between atoms: _432  and  _434
REMARK  154  A    between atoms: _434  and  _435
REMARK  155  A    between atoms: _434  and  _437
REMARK  156  A    between atoms: _437  and  _438
REMARK  157  A    between atoms: _443  and  _445
REMARK  158  A    between atoms: _445  and  _446
REMARK  159  A    between atoms: _445  and  _448
REMARK  160  A    between atoms: _448  and  _449
REMARK  161  A    between atoms: _449  and  _450
REMARK  162  A    between atoms: _450  and  _451
REMARK                            x       y       z     vdW  Elec       q    Type
REMARK                         _______ _______ _______ _____ _____    ______ ____
ROOT
ATOM      1  CB  HIS A   1      18.312  30.093  13.697  0.00  0.00    +0.072 C 
ENDROOT
BRANCH   1   2
ATOM      2  CG  HIS A   1      17.981  31.540  13.755  0.00  0.00    +0.082 A 
ATOM      3  CD2 HIS A   1      18.477  32.530  14.528  0.00  0.00    +0.115 A 
ATOM      4  NE2 HIS A   1      17.777  33.660  14.243  0.00  0.00    -0.221 NA
ATOM      5  CE1 HIS A   1      16.804  33.331  13.373  0.00  0.00    +0.199 A 
ATOM      6  ND1 HIS A   1      16.868  32.044  13.158  0.00  0.00    -0.227 NA
ENDBRANCH   1   2
BRANCH   1   7
ATOM      7  CA  HIS A   1      19.712  29.768  14.267  0.00  0.00    +0.139 C 
BRANCH   7   8
ATOM      8  N   HIS A   1      20.766  30.468  13.442  0.00  0.00    -0.239 NA
ATOM      9  H   HIS A   1      20.842  30.245  12.429  0.00  0.00    +0.142 HD
ENDBRANCH   7   8
BRANCH   7  10
ATOM     10  C   HIS A   1      19.822  28.303  14.271  0.00  0.00    +0.224 C 
ATOM     11  O   HIS A   1      20.151  27.707  13.208  0.00  0.00    -0.287 OA
ENDBRANCH   7  10
ENDBRANCH   1   7
TORSDOF 4
REMARK  Name = ../refined-set-2016/4wr7/4wr7_pocket.pdb
REMARK  162 active torsions:
REMARK  status: ('A' for Active; 'I' for Inactive)
REMARK    1  A    between atoms: _1  and  _3
REMARK    2  A    between atoms: _3  and  _4
REMARK    3  A    between atoms: _3  and  _6
REMARK    4  A    between atoms: _6  and  _7
REMARK    5  A    between atoms: _17  and  _19
REMARK    6  A    between atoms: _19  and  _20
REMARK    7  A    between atoms: _19  and  _22
REMARK    8  A    between atoms: _22  and  _23
REMARK    9  A    between atoms: _28  and  _29
REMARK   10  A    between atoms: _31  and  _33
REMARK   11  A    between atoms: _33  and  _34
REMARK   12  A    between atoms: _33  and  _36
REMARK   13  A    between atoms: _36  and  _37
REMARK   14  A    between atoms: _47  and  _49
REMARK   15  A    between atoms: _49  and  _50
REMARK   16  A    between atoms: _49  and  _52
REMARK   17  A    between atoms: _52  and  _53
REMARK   18  A    between atoms: _56  and  _57
REMARK   19  A    between atoms: _62  and  _64
REMARK   20  A    between atoms: _64  and  _65
REMARK   21  A    between atoms: _64  and  _67
REMARK   22  A    between atoms: _67  and  _68
REMARK   23  A    between atoms: _73  and  _75
REMARK   24  A    between atoms: _75  and  _76
REMARK   25  A    between atoms: _75  and  _78
REMARK   26  A    between atoms: _78  and  _79
REMARK   27  A    between atoms: _81  and  _83
REMARK   28  A    between atoms: _83  and  _84
REMARK   29  A    between atoms: _83  and  _86
REMARK   30  A    between atoms: _86  and  _87
REMARK   31  A    between atoms: _92  and  _94
REMARK   32  A    between atoms: _94  and  _95
REMARK   33  A    between atoms: _94  and  _97
REMARK   34  A    between atoms: _97  and  _98
REMARK   35  A    between atoms: _103  and  _105
REMARK   36  A    between atoms: _105  and  _106
REMARK   37  A    between atoms: _105  and  _108
REMARK   38  A    between atoms: _108  and  _109
REMARK   39  A    between atoms: _115  and  _117
REMARK   40  A    between atoms: _117  and  _118
REMARK   41  A    between atoms: _117  and  _120
REMARK   42  A    between atoms: _120  and  _121
REMARK   43  A    between atoms: _121  and  _122
REMARK   44  A    between atoms: _127  and  _129
REMARK   45  A    between atoms: _129  and  _130
REMARK   46  A    between atoms: _129  and  _132
REMARK   47  A    between atoms: _132  and  _133
REMARK   48  A    between atoms: _139  and  _141
REMARK   49  A    between atoms: _152  and  _155
REMARK   50  A    between atoms: _155  and  _156
REMARK   51  A    between atoms: _164  and  _165
REMARK   52  A    between atoms: _173  and  _175
REMARK   53  A    between atoms: _175  and  _176
REMARK   54  A    between atoms: _175  and  _178
REMARK   55  A    between atoms: _178  and  _179
REMARK   56  A    between atoms: _179  and  _180
REMARK   57  A    between atoms: _183  and  _185
REMARK   58  A    between atoms: _185  and  _186
REMARK   59  A    between atoms: _185  and  _188
REMARK   60  A    between atoms: _188  and  _189
REMARK   61  A    between atoms: _194  and  _196
REMARK   62  A    between atoms: _196  and  _197
REMARK   63  A    between atoms: _196  and  _199
REMARK   64  A    between atoms: _199  and  _200
REMARK   65  A    between atoms: _200  and  _201
REMARK   66  A    between atoms: _204  and  _206
REMARK   67  A    between atoms: _206  and  _207
REMARK   68  A    between atoms: _206  and  _209
REMARK   69  A    between atoms: _209  and  _210
REMARK   70  A    between atoms: _213  and  _215
REMARK   71  A    between atoms: _215  and  _216
REMARK   72  A    between atoms: _215  and  _218
REMARK   73  A    between atoms: _218  and  _219
REMARK   74  A    between atoms: _220  and  ZN_460
REMARK   75  A    between atoms: _224  and  _226
REMARK   76  A    between atoms: _226  and  _227
REMARK   77  A    between atoms: _226  and  _229
REMARK   78  A    between atoms: _232  and  _234
REMARK   79  A    between atoms: _234  and  _235
REMARK   80  A    between atoms: _238  and  _240
REMARK   81  A    between atoms: _240  and  _241
REMARK   82  A    between atoms: _240  and  _243
REMARK   83  A    between atoms: _243  and  _244
REMARK   84  A    between atoms: _249  and  _251
REMARK   85  A    between atoms: _251  and  _252
REMARK   86  A    between atoms: _251  and  _254
REMARK   87  A    between atoms: _254  and  _255
REMARK   88  A    between atoms: _258  and  _260
REMARK   89  A    between atoms: _260  and  _261
REMARK   90  A    between atoms: _264  and  _266
REMARK   91  A    between atoms: _266  and  _267
REMARK   92  A    between atoms: _270  and  _272
REMARK   93  A    between atoms: _272  and  _273
REMARK   94  A    between atoms: _276  and  _278
REMARK   95  A    between atoms: _278  and  _279
REMARK   96  A    between atoms: _278  and  _281
REMARK   97  A    between atoms: _281  and  _282
REMARK   98  A    between atoms: _284  and  _286
REMARK   99  A    between atoms: _286  and  _287
REMARK  100  A    between atoms: _286  and  _289
REMARK  101  A    between atoms: _289  and  _290
REMARK  102  A    between atoms: _293  and  _295
REMARK  103  A    between atoms: _295  and  _296
REMARK  104  A    between atoms: _299  and  _301
REMARK  105  A    between atoms: _301  and  _302
REMARK  106  A    between atoms: _301  and  _304
REMARK  107  A    between atoms: _307  and  _309
REMARK  108  A    between atoms: _309  and  _310
REMARK  109  A    between atoms: _309  and  _312
REMARK  110  A    between atoms: _312  and  _313
REMARK  111  A    between atoms: _316  and  _318
REMARK  112  A    between atoms: _318  and  _319
REMARK  113  A    between atoms: _321  and  _323
REMARK  114  A    between atoms: _323  and  _324
REMARK  115  A    between atoms: _326  and  _328
REMARK  116  A    between atoms: _328  and  _329
REMARK  117  A    between atoms: _328  and  _331
REMARK  118  A    between atoms: _331  and  _332
REMARK  119  A    between atoms: _334  and  _336
REMARK  120  A    between atoms: _336  and  _337
REMARK  121  A    between atoms: _336  and  _339
REMARK  122  A    between atoms: _339  and  _340
REMARK  123  A    between atoms: _343  and  _345
REMARK  124  A    between atoms: _345  and  _346
REMARK  125  A    between atoms: _345  and  _348
REMARK  126  A    between atoms: _348  and  _349
REMARK  127  A    between atoms: _352  and  _354
REMARK  128  A    between atoms: _354  and  _355
REMARK  129  A    between atoms: _354  and  _357
REMARK  130  A    between atoms: _357  and  _358
REMARK  131  A    between atoms: _364  and  _365
REMARK  132  A    between atoms: _371  and  _372
REMARK  133  A    between atoms: _377  and  _379
REMARK  134  A    between atoms: _379  and  _380
REMARK  135  A    between atoms: _379  and  _382
REMARK  136  A    between atoms: _382  and  _383
REMARK  137  A    between atoms: _386  and  _388
REMARK  138  A    between atoms: _388  and  _389
REMARK  139  A    between atoms: _388  and  _391
REMARK  140  A    between atoms: _391  and  _392
REMARK  141  A    between atoms: _397  and  _398
REMARK  142  A    between atoms: _400  and  _402
REMARK  143  A    between atoms: _402  and  _403
REMARK  144  A    between atoms: _402  and  _405
REMARK  145  A    between atoms: _405  and  _406
REMARK  146  A    between atoms: _408  and  _410
REMARK  147  A    between atoms: _410  and  _411
REMARK  148  A    between atoms: _410  and  _413
REMARK  149  A    between atoms: _416  and  _418
REMARK  150  A    between atoms: _418  and  _419
REMARK  151  A    between atoms: _418  and  _421
REMARK  152  A    between atoms: _421  and  _422
REMARK  153  A    between atoms: _432  and  _434
REMARK  154  A    between atoms: _434  and  _435
REMARK  155  A    between atoms: _434  and  _437
REMARK  156  A    between atoms: _437  and  _438
REMARK  157  A    between atoms: _443  and  _445
REMARK  158  A    between atoms: _445  and  _446
REMARK  159  A    between atoms: _445  and  _448
REMARK  160  A    between atoms: _448  and  _449
REMARK  161  A    between atoms: _449  and  _450
REMARK  162  A    between atoms: _450  and  _451
REMARK                            x       y       z     vdW  Elec       q    Type
REMARK                         _______ _______ _______ _____ _____    ______ ____
ROOT
ATOM      1  CB  ASN A   1      15.248  25.459  13.442  0.00  0.00    +0.110 C 
ENDROOT
BRANCH   1   2
ATOM      2  CG  ASN A   1      15.267  26.919  13.255  0.00  0.00    +0.221 C 
ATOM      3  OD1 ASN A   1      15.117  27.666  14.160  0.00  0.00    -0.275 OA
ATOM      4  ND2 ASN A   1      15.600  27.328  12.055  0.00  0.00    -0.329 N 
ATOM      5 HD21 ASN A   1      15.742  28.342  11.872  0.00  0.00    +0.145 HD
ATOM      6 HD22 ASN A   1      15.722  26.639  11.286  0.00  0.00    +0.145 HD
ENDBRANCH   1   2
BRANCH   1   7
ATOM      7  CA  ASN A   1      15.884  25.086  14.795  0.00  0.00    +0.142 C 
BRANCH   7   8
ATOM      8  N   ASN A   1      17.317  25.287  14.723  0.00  0.00    -0.239 NA
ATOM      9  H   ASN A   1      17.831  24.970  13.876  0.00  0.00    +0.142 HD
ENDBRANCH   7   8
BRANCH   7  10
ATOM     10  C   ASN A   1      15.602  23.670  15.114  0.00  0.00    +0.225 C 
ATOM     11  O   ASN A   1      16.387  22.729  14.876  0.00  0.00    -0.287 OA
ENDBRANCH   7  10
ENDBRANCH   1   7
TORSDOF 4
REMARK  Name = ../refined-set-2016/4wr7/4wr7_pocket.pdb
REMARK  162 active torsions:
REMARK  status: ('A' for Active; 'I' for Inactive)
REMARK    1  A    between atoms: _1  and  _3
REMARK    2  A    between atoms: _3  and  _4
REMARK    3  A    between atoms: _3  and  _6
REMARK    4  A    between atoms: _6  and  _7
REMARK    5  A    between atoms: _17  and  _19
REMARK    6  A    between atoms: _19  and  _20
REMARK    7  A    between atoms: _19  and  _22
REMARK    8  A    between atoms: _22  and  _23
REMARK    9  A    between atoms: _28  and  _29
REMARK   10  A    between atoms: _31  and  _33
REMARK   11  A    between atoms: _33  and  _34
REMARK   12  A    between atoms: _33  and  _36
REMARK   13  A    between atoms: _36  and  _37
REMARK   14  A    between atoms: _47  and  _49
REMARK   15  A    between atoms: _49  and  _50
REMARK   16  A    between atoms: _49  and  _52
REMARK   17  A    between atoms: _52  and  _53
REMARK   18  A    between atoms: _56  and  _57
REMARK   19  A    between atoms: _62  and  _64
REMARK   20  A    between atoms: _64  and  _65
REMARK   21  A    between atoms: _64  and  _67
REMARK   22  A    between atoms: _67  and  _68
REMARK   23  A    between atoms: _73  and  _75
REMARK   24  A    between atoms: _75  and  _76
REMARK   25  A    between atoms: _75  and  _78
REMARK   26  A    between atoms: _78  and  _79
REMARK   27  A    between atoms: _81  and  _83
REMARK   28  A    between atoms: _83  and  _84
REMARK   29  A    between atoms: _83  and  _86
REMARK   30  A    between atoms: _86  and  _87
REMARK   31  A    between atoms: _92  and  _94
REMARK   32  A    between atoms: _94  and  _95
REMARK   33  A    between atoms: _94  and  _97
REMARK   34  A    between atoms: _97  and  _98
REMARK   35  A    between atoms: _103  and  _105
REMARK   36  A    between atoms: _105  and  _106
REMARK   37  A    between atoms: _105  and  _108
REMARK   38  A    between atoms: _108  and  _109
REMARK   39  A    between atoms: _115  and  _117
REMARK   40  A    between atoms: _117  and  _118
REMARK   41  A    between atoms: _117  and  _120
REMARK   42  A    between atoms: _120  and  _121
REMARK   43  A    between atoms: _121  and  _122
REMARK   44  A    between atoms: _127  and  _129
REMARK   45  A    between atoms: _129  and  _130
REMARK   46  A    between atoms: _129  and  _132
REMARK   47  A    between atoms: _132  and  _133
REMARK   48  A    between atoms: _139  and  _141
REMARK   49  A    between atoms: _152  and  _155
REMARK   50  A    between atoms: _155  and  _156
REMARK   51  A    between atoms: _164  and  _165
REMARK   52  A    between atoms: _173  and  _175
REMARK   53  A    between atoms: _175  and  _176
REMARK   54  A    between atoms: _175  and  _178
REMARK   55  A    between atoms: _178  and  _179
REMARK   56  A    between atoms: _179  and  _180
REMARK   57  A    between atoms: _183  and  _185
REMARK   58  A    between atoms: _185  and  _186
REMARK   59  A    between atoms: _185  and  _188
REMARK   60  A    between atoms: _188  and  _189
REMARK   61  A    between atoms: _194  and  _196
REMARK   62  A    between atoms: _196  and  _197
REMARK   63  A    between atoms: _196  and  _199
REMARK   64  A    between atoms: _199  and  _200
REMARK   65  A    between atoms: _200  and  _201
REMARK   66  A    between atoms: _204  and  _206
REMARK   67  A    between atoms: _206  and  _207
REMARK   68  A    between atoms: _206  and  _209
REMARK   69  A    between atoms: _209  and  _210
REMARK   70  A    between atoms: _213  and  _215
REMARK   71  A    between atoms: _215  and  _216
REMARK   72  A    between atoms: _215  and  _218
REMARK   73  A    between atoms: _218  and  _219
REMARK   74  A    between atoms: _220  and  ZN_460
REMARK   75  A    between atoms: _224  and  _226
REMARK   76  A    between atoms: _226  and  _227
REMARK   77  A    between atoms: _226  and  _229
REMARK   78  A    between atoms: _232  and  _234
REMARK   79  A    between atoms: _234  and  _235
REMARK   80  A    between atoms: _238  and  _240
REMARK   81  A    between atoms: _240  and  _241
REMARK   82  A    between atoms: _240  and  _243
REMARK   83  A    between atoms: _243  and  _244
REMARK   84  A    between atoms: _249  and  _251
REMARK   85  A    between atoms: _251  and  _252
REMARK   86  A    between atoms: _251  and  _254
REMARK   87  A    between atoms: _254  and  _255
REMARK   88  A    between atoms: _258  and  _260
REMARK   89  A    between atoms: _260  and  _261
REMARK   90  A    between atoms: _264  and  _266
REMARK   91  A    between atoms: _266  and  _267
REMARK   92  A    between atoms: _270  and  _272
REMARK   93  A    between atoms: _272  and  _273
REMARK   94  A    between atoms: _276  and  _278
REMARK   95  A    between atoms: _278  and  _279
REMARK   96  A    between atoms: _278  and  _281
REMARK   97  A    between atoms: _281  and  _282
REMARK   98  A    between atoms: _284  and  _286
REMARK   99  A    between atoms: _286  and  _287
REMARK  100  A    between atoms: _286  and  _289
REMARK  101  A    between atoms: _289  and  _290
REMARK  102  A    between atoms: _293  and  _295
REMARK  103  A    between atoms: _295  and  _296
REMARK  104  A    between atoms: _299  and  _301
REMARK  105  A    between atoms: _301  and  _302
REMARK  106  A    between atoms: _301  and  _304
REMARK  107  A    between atoms: _307  and  _309
REMARK  108  A    between atoms: _309  and  _310
REMARK  109  A    between atoms: _309  and  _312
REMARK  110  A    between atoms: _312  and  _313
REMARK  111  A    between atoms: _316  and  _318
REMARK  112  A    between atoms: _318  and  _319
REMARK  113  A    between atoms: _321  and  _323
REMARK  114  A    between atoms: _323  and  _324
REMARK  115  A    between atoms: _326  and  _328
REMARK  116  A    between atoms: _328  and  _329
REMARK  117  A    between atoms: _328  and  _331
REMARK  118  A    between atoms: _331  and  _332
REMARK  119  A    between atoms: _334  and  _336
REMARK  120  A    between atoms: _336  and  _337
REMARK  121  A    between atoms: _336  and  _339
REMARK  122  A    between atoms: _339  and  _340
REMARK  123  A    between atoms: _343  and  _345
REMARK  124  A    between atoms: _345  and  _346
REMARK  125  A    between atoms: _345  and  _348
REMARK  126  A    between atoms: _348  and  _349
REMARK  127  A    between atoms: _352  and  _354
REMARK  128  A    between atoms: _354  and  _355
REMARK  129  A    between atoms: _354  and  _357
REMARK  130  A    between atoms: _357  and  _358
REMARK  131  A    between atoms: _364  and  _365
REMARK  132  A    between atoms: _371  and  _372
REMARK  133  A    between atoms: _377  and  _379
REMARK  134  A    between atoms: _379  and  _380
REMARK  135  A    between atoms: _379  and  _382
REMARK  136  A    between atoms: _382  and  _383
REMARK  137  A    between atoms: _386  and  _388
REMARK  138  A    between atoms: _388  and  _389
REMARK  139  A    between atoms: _388  and  _391
REMARK  140  A    between atoms: _391  and  _392
REMARK  141  A    between atoms: _397  and  _398
REMARK  142  A    between atoms: _400  and  _402
REMARK  143  A    between atoms: _402  and  _403
REMARK  144  A    between atoms: _402  and  _405
REMARK  145  A    between atoms: _405  and  _406
REMARK  146  A    between atoms: _408  and  _410
REMARK  147  A    between atoms: _410  and  _411
REMARK  148  A    between atoms: _410  and  _413
REMARK  149  A    between atoms: _416  and  _418
REMARK  150  A    between atoms: _418  and  _419
REMARK  151  A    between atoms: _418  and  _421
REMARK  152  A    between atoms: _421  and  _422
REMARK  153  A    between atoms: _432  and  _434
REMARK  154  A    between atoms: _434  and  _435
REMARK  155  A    between atoms: _434  and  _437
REMARK  156  A    between atoms: _437  and  _438
REMARK  157  A    between atoms: _443  and  _445
REMARK  158  A    between atoms: _445  and  _446
REMARK  159  A    between atoms: _445  and  _448
REMARK  160  A    between atoms: _448  and  _449
REMARK  161  A    between atoms: _449  and  _450
REMARK  162  A    between atoms: _450  and  _451
REMARK                            x       y       z     vdW  Elec       q    Type
REMARK                         _______ _______ _______ _____ _____    ______ ____
ROOT
ATOM      1  C   UNK A   4      20.547  31.255  19.017  0.00  0.00    +0.000 C 
ATOM      2  C   UNK A   4      21.304  32.163  19.964  0.00  0.00    +0.000 C 
ATOM      3  O   UNK A   4      20.933  32.105  21.173  0.00  0.00    +0.000 OA
ATOM      4  N   ALA A   5      22.253  32.957  19.505  0.00  0.00    +0.000 N 
ATOM      5  CA  ALA A   5      22.988  33.846  20.374  0.00  0.00    +0.000 C 
ATOM      6  C   ALA A   5      22.918  35.221  19.860  0.00  0.00    +0.000 C 
ATOM      7  N   UNK A   6      23.303  36.148  20.726  0.00  0.00    +0.000 N 
ATOM      8  H   UNK A   6      23.317  35.894  21.734  0.00  0.00    +0.000 HD
ATOM      9  C   UNK A   6      23.697  37.465  20.369  0.00  0.00    +0.000 C 
ATOM     10  C   UNK A   6      22.804  38.572  20.857  0.00  0.00    +0.000 C 
ATOM     11  C   UNK A   6      21.379  38.370  20.477  0.00  0.00    +0.000 A 
ATOM     12  C   UNK A   6      20.522  37.382  20.888  0.00  0.00    +0.000 A 
ATOM     13  N   UNK A   6      19.330  37.518  20.141  0.00  0.00    +0.000 N 
ATOM     14 ZN   UNK A   6      17.575  36.516  20.520  0.00  0.00    +0.000 Zn
ATOM     15  N   UNK A   4      17.847  34.794  19.499  0.00  0.00    +0.000 N 
ATOM     16  C   UNK A   4      19.059  34.285  19.199  0.00  0.00    +0.000 A 
ATOM     17  C   UNK A   4      18.844  33.109  18.502  0.00  0.00    +0.000 A 
ATOM     18  N   UNK A   4      17.480  32.969  18.409  0.00  0.00    +0.000 NA
ATOM     19  C   UNK A   4      16.910  33.980  19.048  0.00  0.00    +0.000 A 
ATOM     20  C   UNK A   6      19.418  38.613  19.372  0.00  0.00    +0.000 A 
ATOM     21  N   UNK A   6      20.739  39.093  19.497  0.00  0.00    +0.000 NA
ATOM     22  O   ALA A   5      22.590  35.460  18.683  0.00  0.00    +0.000 OA
ATOM     23  H   ALA A   5      22.478  32.942  18.490  0.00  0.00    +0.000 HD
ATOM     24  C   UNK A   4      19.827  32.096  17.927  0.00  0.00    +0.000 C 
ENDROOT
BRANCH  14  25
ATOM     25  N   UNK A   6      17.903  36.238  22.494  0.00  0.00    +0.000 N 
ATOM     26  C   UNK A   6      18.084  37.324  23.245  0.00  0.00    +0.000 A 
ATOM     27  N   UNK A   6      18.371  36.883  24.492  0.00  0.00    +0.000 NA
ATOM     28  C   UNK A   6      18.280  35.551  24.511  0.00  0.00    +0.000 A 
ATOM     29  C   UNK A   6      17.873  35.138  23.216  0.00  0.00    +0.000 A 
BRANCH  29  30
ATOM     30  C   UNK A   6      17.619  33.758  22.759  0.00  0.00    +0.000 C 
BRANCH  30  31
ATOM     31  C   UNK A   6      18.185  32.656  23.708  0.00  0.00    +0.000 C 
BRANCH  31  32
ATOM     32  C   UNK A   6      17.726  31.316  23.327  0.00  0.00    +0.000 C 
ATOM     33  N   UNK A   4      16.901  30.757  24.186  0.00  0.00    +0.000 N 
ATOM     34  H   UNK A   4      16.668  31.255  25.069  0.00  0.00    +0.000 HD
ATOM     35  O   UNK A   6      18.078  30.804  22.253  0.00  0.00    +0.000 OA
BRANCH  33  36
ATOM     36  C   UNK A   4      16.290  29.411  23.914  0.00  0.00    +0.000 C 
BRANCH  36  37
ATOM     37  C   UNK A   4      14.742  29.746  23.860  0.00  0.00    +0.000 C 
ATOM     38  O   UNK A   4      14.116  30.094  24.869  0.00  0.00    +0.000 OA
ATOM     39  N   ALA A   5      14.143  29.597  22.668  0.00  0.00    +0.000 N 
ATOM     40  H   ALA A   5      14.637  29.048  21.935  0.00  0.00    +0.000 HD
BRANCH  39  41
ATOM     41  CA  ALA A   5      12.824  30.168  22.340  0.00  0.00    +0.000 C 
ATOM     42  CB  ALA A   5      12.856  30.930  21.041  0.00  0.00    +0.000 C 
BRANCH  41  43
ATOM     43  C   ALA A   5      11.804  29.048  22.205  0.00  0.00    +0.000 C 
ATOM     44  N   UNK A   6      10.590  29.390  22.709  0.00  0.00    +0.000 N 
ATOM     45  H   UNK A   6      10.419  30.370  23.013  0.00  0.00    +0.000 HD
ATOM     46  O   ALA A   5      12.091  27.940  21.724  0.00  0.00    +0.000 OA
BRANCH  44  47
ATOM     47  C   UNK A   6       9.488  28.373  22.834  0.00  0.00    +0.000 C 
BRANCH  47  48
ATOM     48  C   UNK A   6       8.178  29.093  22.539  0.00  0.00    +0.000 C 
ATOM     49  O   UNK A   6       8.037  30.268  22.728  0.00  0.00    +0.000 OA
ENDBRANCH  47  48
BRANCH  47  50
ATOM     50  C   UNK A   6       9.328  27.856  24.247  0.00  0.00    +0.000 C 
BRANCH  50  51
ATOM     51  C   UNK A   6      10.632  27.370  24.904  0.00  0.00    +0.000 A 
ATOM     52  N   UNK A   6      11.589  28.223  25.347  0.00  0.00    +0.000 NA
ATOM     53  C   UNK A   6      12.608  27.515  25.949  0.00  0.00    +0.000 A 
ATOM     54  N   UNK A   6      12.319  26.237  25.836  0.00  0.00    +0.000 NA
ATOM     55  C   UNK A   6      11.031  26.135  25.217  0.00  0.00    +0.000 A 
ENDBRANCH  50  51
ENDBRANCH  47  50
ENDBRANCH  44  47
ENDBRANCH  41  43
ENDBRANCH  39  41
ENDBRANCH  36  37
BRANCH  36  56
ATOM     56  C   UNK A   4      16.541  28.328  24.924  0.00  0.00    +0.000 C 
ATOM     57  C   UNK A   4      18.082  28.228  25.221  0.00  0.00    +0.000 C 
ATOM     58  C   UNK A   4      15.997  27.026  24.512  0.00  0.00    +0.000 C 
ENDBRANCH  36  56
ENDBRANCH  33  36
ENDBRANCH  31  32
BRANCH  31  59
ATOM     59  N   UNK A   6      19.674  32.604  23.713  0.00  0.00    +0.000 N 
ATOM     60  C   LEU A   2      20.505  32.848  24.743  0.00  0.00    +0.000 C 
ATOM     61  O   LEU A   2      20.078  33.138  25.861  0.00  0.00    +0.000 OA
ATOM     62  H   UNK A   6      20.126  32.348  22.812  0.00  0.00    +0.000 HD
BRANCH  60  63
ATOM     63  CA  LEU A   2      22.017  32.650  24.570  0.00  0.00    +0.000 C 
BRANCH  63  64
ATOM     64  N   LEU A   2      22.659  33.777  25.187  0.00  0.00    +0.000 N 
ATOM     65  H   LEU A   2      22.787  33.753  26.219  0.00  0.00    +0.000 HD
ATOM     66  C   GLU A   1      23.095  34.833  24.546  0.00  0.00    +0.000 C 
ATOM     67  O   GLU A   1      23.071  34.949  23.330  0.00  0.00    +0.000 OA
BRANCH  66  68
ATOM     68  CA  GLU A   1      23.664  35.944  25.398  0.00  0.00    +0.000 C 
BRANCH  68  69
ATOM     69  N   GLU A   1      24.904  36.361  24.731  0.00  0.00    +0.000 NA
ATOM     70  H   GLU A   1      24.990  36.238  23.702  0.00  0.00    +0.000 HD
ENDBRANCH  68  69
BRANCH  68  71
ATOM     71  CB  GLU A   1      22.655  37.130  25.433  0.00  0.00    +0.000 C 
BRANCH  71  72
ATOM     72  CG  GLU A   1      21.502  36.703  26.324  0.00  0.00    +0.000 C 
BRANCH  72  73
ATOM     73  CD  GLU A   1      20.695  37.930  26.718  0.00  0.00    +0.000 C 
ATOM     74  OE2 GLU A   1      21.318  38.999  26.925  0.00  0.00    +0.000 OA
ATOM     75  OE1 GLU A   1      19.451  37.845  26.789  0.00  0.00    +0.000 OA
ENDBRANCH  72  73
ENDBRANCH  71  72
ENDBRANCH  68  71
ENDBRANCH  66  68
ENDBRANCH  63  64
BRANCH  63  76
ATOM     76  CB  LEU A   2      22.454  31.336  25.233  0.00  0.00    +0.000 C 
BRANCH  76  77
ATOM     77  CG  LEU A   2      21.586  30.089  25.121  0.00  0.00    +0.000 C 
ATOM     78  CD2 LEU A   2      21.984  28.964  26.058  0.00  0.00    +0.000 C 
ATOM     79  CD1 LEU A   2      21.576  29.612  23.660  0.00  0.00    +0.000 C 
ENDBRANCH  76  77
ENDBRANCH  63  76
ENDBRANCH  60  63
ENDBRANCH  31  59
ENDBRANCH  30  31
ENDBRANCH  29  30
ENDBRANCH  14  25
BRANCH   1  81
ATOM     80  C   UNK A   3      19.043  29.316  19.241  0.00  0.00    +0.000 C 
ATOM     81  N   UNK A   4      19.527  30.451  19.741  0.00  0.00    +0.000 N 
ATOM     82  H   UNK A   4      19.182  30.785  20.664  0.00  0.00    +0.000 HD
ATOM     83  O   UNK A   3      19.258  28.942  18.076  0.00  0.00    +0.000 OA
BRANCH  80  84
ATOM     84  C   UNK A   3      18.095  28.596  20.102  0.00  0.00    +0.000 C 
BRANCH  84  87
ATOM     85  C   LEU A   2      15.858  27.815  19.467  0.00  0.00    +0.000 C 
ATOM     86  O   LEU A   2      15.362  28.170  20.538  0.00  0.00    +0.000 OA
ATOM     87  N   UNK A   3      17.179  27.756  19.260  0.00  0.00    +0.000 N 
ATOM     88  H   UNK A   3      17.567  27.134  18.523  0.00  0.00    +0.000 HD
BRANCH  85  89
ATOM     89  CA  LEU A   2      14.949  27.421  18.288  0.00  0.00    +0.000 C 
BRANCH  89  91
ATOM     90  C   GLU A   1      12.914  26.182  18.027  0.00  0.00    +0.000 C 
ATOM     91  N   LEU A   2      13.710  26.894  18.825  0.00  0.00    +0.000 N 
ATOM     92  H   LEU A   2      13.447  27.068  19.816  0.00  0.00    +0.000 HD
ATOM     93  O   GLU A   1      13.250  25.948  16.869  0.00  0.00    +0.000 OA
BRANCH  90  94
ATOM     94  CA  GLU A   1      11.584  25.758  18.502  0.00  0.00    +0.000 C 
BRANCH  94  95
ATOM     95  N   GLU A   1      11.444  25.747  19.965  0.00  0.00    +0.000 NA
ATOM     96  H   GLU A   1      11.704  26.576  20.537  0.00  0.00    +0.000 HD
ENDBRANCH  94  95
BRANCH  94  97
ATOM     97  CB  GLU A   1      10.461  26.586  17.812  0.00  0.00    +0.000 C 
BRANCH  97  98
ATOM     98  CG  GLU A   1      10.481  28.065  18.076  0.00  0.00    +0.000 A 
ATOM     99  CD2 GLU A   1       9.865  28.617  19.260  0.00  0.00    +0.000 A 
ATOM    100  CE2 GLU A   1       9.855  29.976  19.429  0.00  0.00    +0.000 A 
ATOM    101  CZ  GLU A   1      10.454  30.884  18.508  0.00  0.00    +0.000 A 
ATOM    102  CE1 GLU A   1      11.074  30.358  17.377  0.00  0.00    +0.000 A 
ATOM    103  CD1 GLU A   1      11.064  28.957  17.196  0.00  0.00    +0.000 A 
ENDBRANCH  97  98
ENDBRANCH  94  97
ENDBRANCH  90  94
ENDBRANCH  89  91
BRANCH  89 104
ATOM    104  CB  LEU A   2      14.660  28.746  17.623  0.00  0.00    +0.000 C 
BRANCH 104 105
ATOM    105  CG  LEU A   2      15.885  29.347  16.907  0.00  0.00    +0.000 C 
BRANCH 105 106
ATOM    106  CD  LEU A   2      15.456  30.632  16.283  0.00  0.00    +0.000 C 
ATOM    107  OE1 LEU A   2      15.637  31.764  16.691  0.00  0.00    +0.000 OA
ATOM    108  NE2 LEU A   2      14.789  30.440  15.090  0.00  0.00    +0.000 N 
ATOM    109 HE21 LEU A   2      14.629  29.476  14.733  0.00  0.00    +0.000 HD
ATOM    110 HE22 LEU A   2      14.446  31.259  14.548  0.00  0.00    +0.000 HD
ENDBRANCH 105 106
ENDBRANCH 104 105
ENDBRANCH  89 104
ENDBRANCH  85  89
ENDBRANCH  84  87
BRANCH  84 111
ATOM    111  C   UNK A   3      18.823  27.844  21.250  0.00  0.00    +0.000 C 
BRANCH 111 112
ATOM    112  C   UNK A   3      19.938  26.938  20.763  0.00  0.00    +0.000 A 
ATOM    113  C   UNK A   3      19.721  25.619  20.572  0.00  0.00    +0.000 A 
ATOM    114  C   UNK A   3      20.730  24.693  20.104  0.00  0.00    +0.000 A 
ATOM    115  C   UNK A   3      22.029  25.232  19.875  0.00  0.00    +0.000 A 
ATOM    116  C   UNK A   3      22.217  26.609  20.064  0.00  0.00    +0.000 A 
ATOM    117  C   UNK A   3      21.218  27.459  20.520  0.00  0.00    +0.000 A 
ENDBRANCH 111 112
ENDBRANCH  84 111
ENDBRANCH  80  84
ENDBRANCH   1  81
BRANCH   9 118
ATOM    118  C   UNK A   6      25.100  37.715  20.890  0.00  0.00    +0.000 C 
ATOM    119  O   UNK A   6      25.484  37.157  21.887  0.00  0.00    +0.000 OA
ENDBRANCH   9 118
BRANCH   5 120
ATOM    120  CB  ALA A   5      24.438  33.336  20.319  0.00  0.00    +0.000 C 
BRANCH 120 121
ATOM    121  CG  ALA A   5      24.589  31.896  20.737  0.00  0.00    +0.000 A 
ATOM    122  CD2 ALA A   5      24.862  31.594  22.051  0.00  0.00    +0.000 A 
ATOM    123  CE2 ALA A   5      25.015  30.287  22.476  0.00  0.00    +0.000 A 
ATOM    124  CZ  ALA A   5      24.891  29.255  21.583  0.00  0.00    +0.000 A 
ATOM    125  CE1 ALA A   5      24.619  29.532  20.250  0.00  0.00    +0.000 A 
ATOM    126  CD1 ALA A   5      24.470  30.840  19.825  0.00  0.00    +0.000 A 
ENDBRANCH 120 121
ENDBRANCH   5 120
TORSDOF 40
REMARK  Name = ../refined-set-2016/4wr7/4wr7_pocket.pdb
REMARK  162 active torsions:
REMARK  status: ('A' for Active; 'I' for Inactive)
REMARK    1  A    between atoms: _1  and  _3
REMARK    2  A    between atoms: _3  and  _4
REMARK    3  A    between atoms: _3  and  _6
REMARK    4  A    between atoms: _6  and  _7
REMARK    5  A    between atoms: _17  and  _19
REMARK    6  A    between atoms: _19  and  _20
REMARK    7  A    between atoms: _19  and  _22
REMARK    8  A    between atoms: _22  and  _23
REMARK    9  A    between atoms: _28  and  _29
REMARK   10  A    between atoms: _31  and  _33
REMARK   11  A    between atoms: _33  and  _34
REMARK   12  A    between atoms: _33  and  _36
REMARK   13  A    between atoms: _36  and  _37
REMARK   14  A    between atoms: _47  and  _49
REMARK   15  A    between atoms: _49  and  _50
REMARK   16  A    between atoms: _49  and  _52
REMARK   17  A    between atoms: _52  and  _53
REMARK   18  A    between atoms: _56  and  _57
REMARK   19  A    between atoms: _62  and  _64
REMARK   20  A    between atoms: _64  and  _65
REMARK   21  A    between atoms: _64  and  _67
REMARK   22  A    between atoms: _67  and  _68
REMARK   23  A    between atoms: _73  and  _75
REMARK   24  A    between atoms: _75  and  _76
REMARK   25  A    between atoms: _75  and  _78
REMARK   26  A    between atoms: _78  and  _79
REMARK   27  A    between atoms: _81  and  _83
REMARK   28  A    between atoms: _83  and  _84
REMARK   29  A    between atoms: _83  and  _86
REMARK   30  A    between atoms: _86  and  _87
REMARK   31  A    between atoms: _92  and  _94
REMARK   32  A    between atoms: _94  and  _95
REMARK   33  A    between atoms: _94  and  _97
REMARK   34  A    between atoms: _97  and  _98
REMARK   35  A    between atoms: _103  and  _105
REMARK   36  A    between atoms: _105  and  _106
REMARK   37  A    between atoms: _105  and  _108
REMARK   38  A    between atoms: _108  and  _109
REMARK   39  A    between atoms: _115  and  _117
REMARK   40  A    between atoms: _117  and  _118
REMARK   41  A    between atoms: _117  and  _120
REMARK   42  A    between atoms: _120  and  _121
REMARK   43  A    between atoms: _121  and  _122
REMARK   44  A    between atoms: _127  and  _129
REMARK   45  A    between atoms: _129  and  _130
REMARK   46  A    between atoms: _129  and  _132
REMARK   47  A    between atoms: _132  and  _133
REMARK   48  A    between atoms: _139  and  _141
REMARK   49  A    between atoms: _152  and  _155
REMARK   50  A    between atoms: _155  and  _156
REMARK   51  A    between atoms: _164  and  _165
REMARK   52  A    between atoms: _173  and  _175
REMARK   53  A    between atoms: _175  and  _176
REMARK   54  A    between atoms: _175  and  _178
REMARK   55  A    between atoms: _178  and  _179
REMARK   56  A    between atoms: _179  and  _180
REMARK   57  A    between atoms: _183  and  _185
REMARK   58  A    between atoms: _185  and  _186
REMARK   59  A    between atoms: _185  and  _188
REMARK   60  A    between atoms: _188  and  _189
REMARK   61  A    between atoms: _194  and  _196
REMARK   62  A    between atoms: _196  and  _197
REMARK   63  A    between atoms: _196  and  _199
REMARK   64  A    between atoms: _199  and  _200
REMARK   65  A    between atoms: _200  and  _201
REMARK   66  A    between atoms: _204  and  _206
REMARK   67  A    between atoms: _206  and  _207
REMARK   68  A    between atoms: _206  and  _209
REMARK   69  A    between atoms: _209  and  _210
REMARK   70  A    between atoms: _213  and  _215
REMARK   71  A    between atoms: _215  and  _216
REMARK   72  A    between atoms: _215  and  _218
REMARK   73  A    between atoms: _218  and  _219
REMARK   74  A    between atoms: _220  and  ZN_460
REMARK   75  A    between atoms: _224  and  _226
REMARK   76  A    between atoms: _226  and  _227
REMARK   77  A    between atoms: _226  and  _229
REMARK   78  A    between atoms: _232  and  _234
REMARK   79  A    between atoms: _234  and  _235
REMARK   80  A    between atoms: _238  and  _240
REMARK   81  A    between atoms: _240  and  _241
REMARK   82  A    between atoms: _240  and  _243
REMARK   83  A    between atoms: _243  and  _244
REMARK   84  A    between atoms: _249  and  _251
REMARK   85  A    between atoms: _251  and  _252
REMARK   86  A    between atoms: _251  and  _254
REMARK   87  A    between atoms: _254  and  _255
REMARK   88  A    between atoms: _258  and  _260
REMARK   89  A    between atoms: _260  and  _261
REMARK   90  A    between atoms: _264  and  _266
REMARK   91  A    between atoms: _266  and  _267
REMARK   92  A    between atoms: _270  and  _272
REMARK   93  A    between atoms: _272  and  _273
REMARK   94  A    between atoms: _276  and  _278
REMARK   95  A    between atoms: _278  and  _279
REMARK   96  A    between atoms: _278  and  _281
REMARK   97  A    between atoms: _281  and  _282
REMARK   98  A    between atoms: _284  and  _286
REMARK   99  A    between atoms: _286  and  _287
REMARK  100  A    between atoms: _286  and  _289
REMARK  101  A    between atoms: _289  and  _290
REMARK  102  A    between atoms: _293  and  _295
REMARK  103  A    between atoms: _295  and  _296
REMARK  104  A    between atoms: _299  and  _301
REMARK  105  A    between atoms: _301  and  _302
REMARK  106  A    between atoms: _301  and  _304
REMARK  107  A    between atoms: _307  and  _309
REMARK  108  A    between atoms: _309  and  _310
REMARK  109  A    between atoms: _309  and  _312
REMARK  110  A    between atoms: _312  and  _313
REMARK  111  A    between atoms: _316  and  _318
REMARK  112  A    between atoms: _318  and  _319
REMARK  113  A    between atoms: _321  and  _323
REMARK  114  A    between atoms: _323  and  _324
REMARK  115  A    between atoms: _326  and  _328
REMARK  116  A    between atoms: _328  and  _329
REMARK  117  A    between atoms: _328  and  _331
REMARK  118  A    between atoms: _331  and  _332
REMARK  119  A    between atoms: _334  and  _336
REMARK  120  A    between atoms: _336  and  _337
REMARK  121  A    between atoms: _336  and  _339
REMARK  122  A    between atoms: _339  and  _340
REMARK  123  A    between atoms: _343  and  _345
REMARK  124  A    between atoms: _345  and  _346
REMARK  125  A    between atoms: _345  and  _348
REMARK  126  A    between atoms: _348  and  _349
REMARK  127  A    between atoms: _352  and  _354
REMARK  128  A    between atoms: _354  and  _355
REMARK  129  A    between atoms: _354  and  _357
REMARK  130  A    between atoms: _357  and  _358
REMARK  131  A    between atoms: _364  and  _365
REMARK  132  A    between atoms: _371  and  _372
REMARK  133  A    between atoms: _377  and  _379
REMARK  134  A    between atoms: _379  and  _380
REMARK  135  A    between atoms: _379  and  _382
REMARK  136  A    between atoms: _382  and  _383
REMARK  137  A    between atoms: _386  and  _388
REMARK  138  A    between atoms: _388  and  _389
REMARK  139  A    between atoms: _388  and  _391
REMARK  140  A    between atoms: _391  and  _392
REMARK  141  A    between atoms: _397  and  _398
REMARK  142  A    between atoms: _400  and  _402
REMARK  143  A    between atoms: _402  and  _403
REMARK  144  A    between atoms: _402  and  _405
REMARK  145  A    between atoms: _405  and  _406
REMARK  146  A    between atoms: _408  and  _410
REMARK  147  A    between atoms: _410  and  _411
REMARK  148  A    between atoms: _410  and  _413
REMARK  149  A    between atoms: _416  and  _418
REMARK  150  A    between atoms: _418  and  _419
REMARK  151  A    between atoms: _418  and  _421
REMARK  152  A    between atoms: _421  and  _422
REMARK  153  A    between atoms: _432  and  _434
REMARK  154  A    between atoms: _434  and  _435
REMARK  155  A    between atoms: _434  and  _437
REMARK  156  A    between atoms: _437  and  _438
REMARK  157  A    between atoms: _443  and  _445
REMARK  158  A    between atoms: _445  and  _446
REMARK  159  A    between atoms: _445  and  _448
REMARK  160  A    between atoms: _448  and  _449
REMARK  161  A    between atoms: _449  and  _450
REMARK  162  A    between atoms: _450  and  _451
REMARK                            x       y       z     vdW  Elec       q    Type
REMARK                         _______ _______ _______ _____ _____    ______ ____
ROOT
ATOM      1  C   GLU A   1      20.748  42.578  26.637  0.00  0.00    +0.238 C 
ATOM      2  N   HIS A   2      20.298  41.643  27.459  0.00  0.00    -0.298 N 
ATOM      3  H   HIS A   2      20.138  40.669  27.131  0.00  0.00    +0.150 HD
ATOM      4  O   GLU A   1      20.769  43.776  26.854  0.00  0.00    -0.274 OA
ENDROOT
BRANCH   1   5
ATOM      5  CA  GLU A   1      21.268  42.056  25.259  0.00  0.00    +0.145 C 
BRANCH   5   6
ATOM      6  N   GLU A   1      22.381  41.115  25.386  0.00  0.00    -0.238 NA
ATOM      7  H   GLU A   1      22.194  40.104  25.543  0.00  0.00    +0.142 HD
ENDBRANCH   5   6
BRANCH   5   8
ATOM      8  CB  GLU A   1      20.173  41.300  24.426  0.00  0.00    +0.038 C 
BRANCH   8   9
ATOM      9  CG  GLU A   1      20.689  40.824  23.020  0.00  0.00    +0.116 C 
BRANCH   9  10
ATOM     10  CD  GLU A   1      19.580  40.868  21.950  0.00  0.00    +0.365 C 
ATOM     11  OE2 GLU A   1      18.630  40.114  22.147  0.00  0.00    -0.246 OA
ATOM     12  OE1 GLU A   1      19.676  41.756  21.103  0.00  0.00    -0.246 OA
ENDBRANCH   9  10
ENDBRANCH   8   9
ENDBRANCH   5   8
ENDBRANCH   1   5
BRANCH   2  13
ATOM     13  CA  HIS A   2      20.030  42.036  28.869  0.00  0.00    +0.143 C 
BRANCH  13  14
ATOM     14  C   HIS A   2      21.330  42.433  29.560  0.00  0.00    +0.227 C 
ATOM     15  O   HIS A   2      22.436  41.977  29.213  0.00  0.00    -0.286 OA
ENDBRANCH  13  14
BRANCH  13  16
ATOM     16  CB  HIS A   2      19.319  40.928  29.572  0.00  0.00    +0.075 C 
BRANCH  16  17
ATOM     17  CG  HIS A   2      17.975  40.662  28.974  0.00  0.00    +0.082 A 
ATOM     18  CD2 HIS A   2      16.748  41.186  29.294  0.00  0.00    +0.115 A 
ATOM     19  NE2 HIS A   2      15.839  40.679  28.394  0.00  0.00    -0.221 NA
ATOM     20  CE1 HIS A   2      16.481  39.898  27.500  0.00  0.00    +0.199 A 
ATOM     21  ND1 HIS A   2      17.794  39.844  27.830  0.00  0.00    -0.227 NA
ENDBRANCH  16  17
ENDBRANCH  13  16
ENDBRANCH   2  13
TORSDOF 9
REMARK  Name = ../refined-set-2016/4wr7/4wr7_pocket.pdb
REMARK  162 active torsions:
REMARK  status: ('A' for Active; 'I' for Inactive)
REMARK    1  A    between atoms: _1  and  _3
REMARK    2  A    between atoms: _3  and  _4
REMARK    3  A    between atoms: _3  and  _6
REMARK    4  A    between atoms: _6  and  _7
REMARK    5  A    between atoms: _17  and  _19
REMARK    6  A    between atoms: _19  and  _20
REMARK    7  A    between atoms: _19  and  _22
REMARK    8  A    between atoms: _22  and  _23
REMARK    9  A    between atoms: _28  and  _29
REMARK   10  A    between atoms: _31  and  _33
REMARK   11  A    between atoms: _33  and  _34
REMARK   12  A    between atoms: _33  and  _36
REMARK   13  A    between atoms: _36  and  _37
REMARK   14  A    between atoms: _47  and  _49
REMARK   15  A    between atoms: _49  and  _50
REMARK   16  A    between atoms: _49  and  _52
REMARK   17  A    between atoms: _52  and  _53
REMARK   18  A    between atoms: _56  and  _57
REMARK   19  A    between atoms: _62  and  _64
REMARK   20  A    between atoms: _64  and  _65
REMARK   21  A    between atoms: _64  and  _67
REMARK   22  A    between atoms: _67  and  _68
REMARK   23  A    between atoms: _73  and  _75
REMARK   24  A    between atoms: _75  and  _76
REMARK   25  A    between atoms: _75  and  _78
REMARK   26  A    between atoms: _78  and  _79
REMARK   27  A    between atoms: _81  and  _83
REMARK   28  A    between atoms: _83  and  _84
REMARK   29  A    between atoms: _83  and  _86
REMARK   30  A    between atoms: _86  and  _87
REMARK   31  A    between atoms: _92  and  _94
REMARK   32  A    between atoms: _94  and  _95
REMARK   33  A    between atoms: _94  and  _97
REMARK   34  A    between atoms: _97  and  _98
REMARK   35  A    between atoms: _103  and  _105
REMARK   36  A    between atoms: _105  and  _106
REMARK   37  A    between atoms: _105  and  _108
REMARK   38  A    between atoms: _108  and  _109
REMARK   39  A    between atoms: _115  and  _117
REMARK   40  A    between atoms: _117  and  _118
REMARK   41  A    between atoms: _117  and  _120
REMARK   42  A    between atoms: _120  and  _121
REMARK   43  A    between atoms: _121  and  _122
REMARK   44  A    between atoms: _127  and  _129
REMARK   45  A    between atoms: _129  and  _130
REMARK   46  A    between atoms: _129  and  _132
REMARK   47  A    between atoms: _132  and  _133
REMARK   48  A    between atoms: _139  and  _141
REMARK   49  A    between atoms: _152  and  _155
REMARK   50  A    between atoms: _155  and  _156
REMARK   51  A    between atoms: _164  and  _165
REMARK   52  A    between atoms: _173  and  _175
REMARK   53  A    between atoms: _175  and  _176
REMARK   54  A    between atoms: _175  and  _178
REMARK   55  A    between atoms: _178  and  _179
REMARK   56  A    between atoms: _179  and  _180
REMARK   57  A    between atoms: _183  and  _185
REMARK   58  A    between atoms: _185  and  _186
REMARK   59  A    between atoms: _185  and  _188
REMARK   60  A    between atoms: _188  and  _189
REMARK   61  A    between atoms: _194  and  _196
REMARK   62  A    between atoms: _196  and  _197
REMARK   63  A    between atoms: _196  and  _199
REMARK   64  A    between atoms: _199  and  _200
REMARK   65  A    between atoms: _200  and  _201
REMARK   66  A    between atoms: _204  and  _206
REMARK   67  A    between atoms: _206  and  _207
REMARK   68  A    between atoms: _206  and  _209
REMARK   69  A    between atoms: _209  and  _210
REMARK   70  A    between atoms: _213  and  _215
REMARK   71  A    between atoms: _215  and  _216
REMARK   72  A    between atoms: _215  and  _218
REMARK   73  A    between atoms: _218  and  _219
REMARK   74  A    between atoms: _220  and  ZN_460
REMARK   75  A    between atoms: _224  and  _226
REMARK   76  A    between atoms: _226  and  _227
REMARK   77  A    between atoms: _226  and  _229
REMARK   78  A    between atoms: _232  and  _234
REMARK   79  A    between atoms: _234  and  _235
REMARK   80  A    between atoms: _238  and  _240
REMARK   81  A    between atoms: _240  and  _241
REMARK   82  A    between atoms: _240  and  _243
REMARK   83  A    between atoms: _243  and  _244
REMARK   84  A    between atoms: _249  and  _251
REMARK   85  A    between atoms: _251  and  _252
REMARK   86  A    between atoms: _251  and  _254
REMARK   87  A    between atoms: _254  and  _255
REMARK   88  A    between atoms: _258  and  _260
REMARK   89  A    between atoms: _260  and  _261
REMARK   90  A    between atoms: _264  and  _266
REMARK   91  A    between atoms: _266  and  _267
REMARK   92  A    between atoms: _270  and  _272
REMARK   93  A    between atoms: _272  and  _273
REMARK   94  A    between atoms: _276  and  _278
REMARK   95  A    between atoms: _278  and  _279
REMARK   96  A    between atoms: _278  and  _281
REMARK   97  A    between atoms: _281  and  _282
REMARK   98  A    between atoms: _284  and  _286
REMARK   99  A    between atoms: _286  and  _287
REMARK  100  A    between atoms: _286  and  _289
REMARK  101  A    between atoms: _289  and  _290
REMARK  102  A    between atoms: _293  and  _295
REMARK  103  A    between atoms: _295  and  _296
REMARK  104  A    between atoms: _299  and  _301
REMARK  105  A    between atoms: _301  and  _302
REMARK  106  A    between atoms: _301  and  _304
REMARK  107  A    between atoms: _307  and  _309
REMARK  108  A    between atoms: _309  and  _310
REMARK  109  A    between atoms: _309  and  _312
REMARK  110  A    between atoms: _312  and  _313
REMARK  111  A    between atoms: _316  and  _318
REMARK  112  A    between atoms: _318  and  _319
REMARK  113  A    between atoms: _321  and  _323
REMARK  114  A    between atoms: _323  and  _324
REMARK  115  A    between atoms: _326  and  _328
REMARK  116  A    between atoms: _328  and  _329
REMARK  117  A    between atoms: _328  and  _331
REMARK  118  A    between atoms: _331  and  _332
REMARK  119  A    between atoms: _334  and  _336
REMARK  120  A    between atoms: _336  and  _337
REMARK  121  A    between atoms: _336  and  _339
REMARK  122  A    between atoms: _339  and  _340
REMARK  123  A    between atoms: _343  and  _345
REMARK  124  A    between atoms: _345  and  _346
REMARK  125  A    between atoms: _345  and  _348
REMARK  126  A    between atoms: _348  and  _349
REMARK  127  A    between atoms: _352  and  _354
REMARK  128  A    between atoms: _354  and  _355
REMARK  129  A    between atoms: _354  and  _357
REMARK  130  A    between atoms: _357  and  _358
REMARK  131  A    between atoms: _364  and  _365
REMARK  132  A    between atoms: _371  and  _372
REMARK  133  A    between atoms: _377  and  _379
REMARK  134  A    between atoms: _379  and  _380
REMARK  135  A    between atoms: _379  and  _382
REMARK  136  A    between atoms: _382  and  _383
REMARK  137  A    between atoms: _386  and  _388
REMARK  138  A    between atoms: _388  and  _389
REMARK  139  A    between atoms: _388  and  _391
REMARK  140  A    between atoms: _391  and  _392
REMARK  141  A    between atoms: _397  and  _398
REMARK  142  A    between atoms: _400  and  _402
REMARK  143  A    between atoms: _402  and  _403
REMARK  144  A    between atoms: _402  and  _405
REMARK  145  A    between atoms: _405  and  _406
REMARK  146  A    between atoms: _408  and  _410
REMARK  147  A    between atoms: _410  and  _411
REMARK  148  A    between atoms: _410  and  _413
REMARK  149  A    between atoms: _416  and  _418
REMARK  150  A    between atoms: _418  and  _419
REMARK  151  A    between atoms: _418  and  _421
REMARK  152  A    between atoms: _421  and  _422
REMARK  153  A    between atoms: _432  and  _434
REMARK  154  A    between atoms: _434  and  _435
REMARK  155  A    between atoms: _434  and  _437
REMARK  156  A    between atoms: _437  and  _438
REMARK  157  A    between atoms: _443  and  _445
REMARK  158  A    between atoms: _445  and  _446
REMARK  159  A    between atoms: _445  and  _448
REMARK  160  A    between atoms: _448  and  _449
REMARK  161  A    between atoms: _449  and  _450
REMARK  162  A    between atoms: _450  and  _451
REMARK                            x       y       z     vdW  Elec       q    Type
REMARK                         _______ _______ _______ _____ _____    ______ ____
ROOT
ATOM      1  C   LEU A   1       4.029  30.586  15.329  0.00  0.00    +0.238 C 
ATOM      2  O   LEU A   1       3.959  31.637  15.905  0.00  0.00    -0.274 OA
ATOM      3  N   ALA A   2       3.602  30.453  14.060  0.00  0.00    -0.298 N 
ATOM      4  H   ALA A   2       3.621  29.524  13.592  0.00  0.00    +0.150 HD
ENDROOT
BRANCH   3   5
ATOM      5  CA  ALA A   2       3.118  31.613  13.359  0.00  0.00    +0.137 C 
ATOM      6  CB  ALA A   2       2.716  31.165  11.963  0.00  0.00    +0.030 C 
BRANCH   5   7
ATOM      7  C   ALA A   2       1.925  32.280  14.032  0.00  0.00    +0.227 C 
ATOM      8  O   ALA A   2       1.813  33.513  14.042  0.00  0.00    -0.286 OA
ENDBRANCH   5   7
ENDBRANCH   3   5
BRANCH   1   9
ATOM      9  CA  LEU A   1       4.603  29.385  15.995  0.00  0.00    +0.145 C 
BRANCH   9  10
ATOM     10  N   LEU A   1       3.839  28.138  15.817  0.00  0.00    -0.238 NA
ATOM     11  H   LEU A   1       4.309  27.256  15.529  0.00  0.00    +0.142 HD
ENDBRANCH   9  10
BRANCH   9  12
ATOM     12  CB  LEU A   1       6.114  29.225  15.560  0.00  0.00    +0.026 C 
BRANCH  12  13
ATOM     13  CG  LEU A   1       6.946  30.492  15.500  0.00  0.00    +0.002 C 
ATOM     14  CD2 LEU A   1       7.235  30.982  16.946  0.00  0.00    +0.000 C 
ATOM     15  CD1 LEU A   1       8.297  30.103  14.896  0.00  0.00    +0.000 C 
ENDBRANCH  12  13
ENDBRANCH   9  12
ENDBRANCH   1   9
TORSDOF 6
REMARK  Name = ../refined-set-2016/4wr7/4wr7_pocket.pdb
REMARK  162 active torsions:
REMARK  status: ('A' for Active; 'I' for Inactive)
REMARK    1  A    between atoms: _1  and  _3
REMARK    2  A    between atoms: _3  and  _4
REMARK    3  A    between atoms: _3  and  _6
REMARK    4  A    between atoms: _6  and  _7
REMARK    5  A    between atoms: _17  and  _19
REMARK    6  A    between atoms: _19  and  _20
REMARK    7  A    between atoms: _19  and  _22
REMARK    8  A    between atoms: _22  and  _23
REMARK    9  A    between atoms: _28  and  _29
REMARK   10  A    between atoms: _31  and  _33
REMARK   11  A    between atoms: _33  and  _34
REMARK   12  A    between atoms: _33  and  _36
REMARK   13  A    between atoms: _36  and  _37
REMARK   14  A    between atoms: _47  and  _49
REMARK   15  A    between atoms: _49  and  _50
REMARK   16  A    between atoms: _49  and  _52
REMARK   17  A    between atoms: _52  and  _53
REMARK   18  A    between atoms: _56  and  _57
REMARK   19  A    between atoms: _62  and  _64
REMARK   20  A    between atoms: _64  and  _65
REMARK   21  A    between atoms: _64  and  _67
REMARK   22  A    between atoms: _67  and  _68
REMARK   23  A    between atoms: _73  and  _75
REMARK   24  A    between atoms: _75  and  _76
REMARK   25  A    between atoms: _75  and  _78
REMARK   26  A    between atoms: _78  and  _79
REMARK   27  A    between atoms: _81  and  _83
REMARK   28  A    between atoms: _83  and  _84
REMARK   29  A    between atoms: _83  and  _86
REMARK   30  A    between atoms: _86  and  _87
REMARK   31  A    between atoms: _92  and  _94
REMARK   32  A    between atoms: _94  and  _95
REMARK   33  A    between atoms: _94  and  _97
REMARK   34  A    between atoms: _97  and  _98
REMARK   35  A    between atoms: _103  and  _105
REMARK   36  A    between atoms: _105  and  _106
REMARK   37  A    between atoms: _105  and  _108
REMARK   38  A    between atoms: _108  and  _109
REMARK   39  A    between atoms: _115  and  _117
REMARK   40  A    between atoms: _117  and  _118
REMARK   41  A    between atoms: _117  and  _120
REMARK   42  A    between atoms: _120  and  _121
REMARK   43  A    between atoms: _121  and  _122
REMARK   44  A    between atoms: _127  and  _129
REMARK   45  A    between atoms: _129  and  _130
REMARK   46  A    between atoms: _129  and  _132
REMARK   47  A    between atoms: _132  and  _133
REMARK   48  A    between atoms: _139  and  _141
REMARK   49  A    between atoms: _152  and  _155
REMARK   50  A    between atoms: _155  and  _156
REMARK   51  A    between atoms: _164  and  _165
REMARK   52  A    between atoms: _173  and  _175
REMARK   53  A    between atoms: _175  and  _176
REMARK   54  A    between atoms: _175  and  _178
REMARK   55  A    between atoms: _178  and  _179
REMARK   56  A    between atoms: _179  and  _180
REMARK   57  A    between atoms: _183  and  _185
REMARK   58  A    between atoms: _185  and  _186
REMARK   59  A    between atoms: _185  and  _188
REMARK   60  A    between atoms: _188  and  _189
REMARK   61  A    between atoms: _194  and  _196
REMARK   62  A    between atoms: _196  and  _197
REMARK   63  A    between atoms: _196  and  _199
REMARK   64  A    between atoms: _199  and  _200
REMARK   65  A    between atoms: _200  and  _201
REMARK   66  A    between atoms: _204  and  _206
REMARK   67  A    between atoms: _206  and  _207
REMARK   68  A    between atoms: _206  and  _209
REMARK   69  A    between atoms: _209  and  _210
REMARK   70  A    between atoms: _213  and  _215
REMARK   71  A    between atoms: _215  and  _216
REMARK   72  A    between atoms: _215  and  _218
REMARK   73  A    between atoms: _218  and  _219
REMARK   74  A    between atoms: _220  and  ZN_460
REMARK   75  A    between atoms: _224  and  _226
REMARK   76  A    between atoms: _226  and  _227
REMARK   77  A    between atoms: _226  and  _229
REMARK   78  A    between atoms: _232  and  _234
REMARK   79  A    between atoms: _234  and  _235
REMARK   80  A    between atoms: _238  and  _240
REMARK   81  A    between atoms: _240  and  _241
REMARK   82  A    between atoms: _240  and  _243
REMARK   83  A    between atoms: _243  and  _244
REMARK   84  A    between atoms: _249  and  _251
REMARK   85  A    between atoms: _251  and  _252
REMARK   86  A    between atoms: _251  and  _254
REMARK   87  A    between atoms: _254  and  _255
REMARK   88  A    between atoms: _258  and  _260
REMARK   89  A    between atoms: _260  and  _261
REMARK   90  A    between atoms: _264  and  _266
REMARK   91  A    between atoms: _266  and  _267
REMARK   92  A    between atoms: _270  and  _272
REMARK   93  A    between atoms: _272  and  _273
REMARK   94  A    between atoms: _276  and  _278
REMARK   95  A    between atoms: _278  and  _279
REMARK   96  A    between atoms: _278  and  _281
REMARK   97  A    between atoms: _281  and  _282
REMARK   98  A    between atoms: _284  and  _286
REMARK   99  A    between atoms: _286  and  _287
REMARK  100  A    between atoms: _286  and  _289
REMARK  101  A    between atoms: _289  and  _290
REMARK  102  A    between atoms: _293  and  _295
REMARK  103  A    between atoms: _295  and  _296
REMARK  104  A    between atoms: _299  and  _301
REMARK  105  A    between atoms: _301  and  _302
REMARK  106  A    between atoms: _301  and  _304
REMARK  107  A    between atoms: _307  and  _309
REMARK  108  A    between atoms: _309  and  _310
REMARK  109  A    between atoms: _309  and  _312
REMARK  110  A    between atoms: _312  and  _313
REMARK  111  A    between atoms: _316  and  _318
REMARK  112  A    between atoms: _318  and  _319
REMARK  113  A    between atoms: _321  and  _323
REMARK  114  A    between atoms: _323  and  _324
REMARK  115  A    between atoms: _326  and  _328
REMARK  116  A    between atoms: _328  and  _329
REMARK  117  A    between atoms: _328  and  _331
REMARK  118  A    between atoms: _331  and  _332
REMARK  119  A    between atoms: _334  and  _336
REMARK  120  A    between atoms: _336  and  _337
REMARK  121  A    between atoms: _336  and  _339
REMARK  122  A    between atoms: _339  and  _340
REMARK  123  A    between atoms: _343  and  _345
REMARK  124  A    between atoms: _345  and  _346
REMARK  125  A    between atoms: _345  and  _348
REMARK  126  A    between atoms: _348  and  _349
REMARK  127  A    between atoms: _352  and  _354
REMARK  128  A    between atoms: _354  and  _355
REMARK  129  A    between atoms: _354  and  _357
REMARK  130  A    between atoms: _357  and  _358
REMARK  131  A    between atoms: _364  and  _365
REMARK  132  A    between atoms: _371  and  _372
REMARK  133  A    between atoms: _377  and  _379
REMARK  134  A    between atoms: _379  and  _380
REMARK  135  A    between atoms: _379  and  _382
REMARK  136  A    between atoms: _382  and  _383
REMARK  137  A    between atoms: _386  and  _388
REMARK  138  A    between atoms: _388  and  _389
REMARK  139  A    between atoms: _388  and  _391
REMARK  140  A    between atoms: _391  and  _392
REMARK  141  A    between atoms: _397  and  _398
REMARK  142  A    between atoms: _400  and  _402
REMARK  143  A    between atoms: _402  and  _403
REMARK  144  A    between atoms: _402  and  _405
REMARK  145  A    between atoms: _405  and  _406
REMARK  146  A    between atoms: _408  and  _410
REMARK  147  A    between atoms: _410  and  _411
REMARK  148  A    between atoms: _410  and  _413
REMARK  149  A    between atoms: _416  and  _418
REMARK  150  A    between atoms: _418  and  _419
REMARK  151  A    between atoms: _418  and  _421
REMARK  152  A    between atoms: _421  and  _422
REMARK  153  A    between atoms: _432  and  _434
REMARK  154  A    between atoms: _434  and  _435
REMARK  155  A    between atoms: _434  and  _437
REMARK  156  A    between atoms: _437  and  _438
REMARK  157  A    between atoms: _443  and  _445
REMARK  158  A    between atoms: _445  and  _446
REMARK  159  A    between atoms: _445  and  _448
REMARK  160  A    between atoms: _448  and  _449
REMARK  161  A    between atoms: _449  and  _450
REMARK  162  A    between atoms: _450  and  _451
REMARK                            x       y       z     vdW  Elec       q    Type
REMARK                         _______ _______ _______ _____ _____    ______ ____
ROOT
ATOM      1  CA  ALA A   2       4.368  34.836  17.627  0.00  0.00    +0.149 C 
ATOM      2  CB  ALA A   2       5.173  34.776  16.332  0.00  0.00    +0.031 C 
ENDROOT
BRANCH   1   5
ATOM      3  C   ALA A   1       2.553  33.610  18.685  0.00  0.00    +0.238 C 
ATOM      4  O   ALA A   1       2.545  34.355  19.640  0.00  0.00    -0.274 OA
ATOM      5  N   ALA A   2       3.273  33.904  17.586  0.00  0.00    -0.297 N 
ATOM      6  H   ALA A   2       3.031  33.446  16.684  0.00  0.00    +0.150 HD
BRANCH   3   7
ATOM      7  CA  ALA A   1       1.714  32.306  18.739  0.00  0.00    +0.145 C 
ATOM      8  CB  ALA A   1       2.487  31.131  19.360  0.00  0.00    +0.028 C 
BRANCH   7   9
ATOM      9  N   ALA A   1       1.196  31.844  17.448  0.00  0.00    -0.238 NA
ATOM     10  H   ALA A   1       1.492  30.912  17.096  0.00  0.00    +0.142 HD
ENDBRANCH   7   9
ENDBRANCH   3   7
ENDBRANCH   1   5
BRANCH   1  11
ATOM     11  C   ALA A   2       3.922  36.231  17.919  0.00  0.00    +0.241 C 
ATOM     12  O   ALA A   2       4.706  37.046  18.423  0.00  0.00    -0.273 OA
ATOM     13  N   SER A   3       2.626  36.534  17.687  0.00  0.00    -0.296 N 
ATOM     14  H   SER A   3       1.959  35.814  17.343  0.00  0.00    +0.150 HD
BRANCH  13  15
ATOM     15  CA  SER A   3       2.195  37.903  17.935  0.00  0.00    +0.166 C 
BRANCH  15  16
ATOM     16  CB  SER A   3       1.309  38.037  19.175  0.00  0.00    +0.229 C 
ATOM     17  OG  SER A   3       0.866  39.186  19.435  0.00  0.00    -0.286 OA
ENDBRANCH  15  16
BRANCH  15  18
ATOM     18  C   SER A   3       1.466  38.475  16.727  0.00  0.00    +0.165 C 
BRANCH  18  19
ATOM     19  O   SER A   3       0.340  37.642  16.458  0.00  0.00    -0.380 OA
ATOM     20  H   SER A   3       0.650  36.721  16.267  0.00  0.00    +0.211 HD
ENDBRANCH  18  19
ENDBRANCH  15  18
ENDBRANCH  13  15
ENDBRANCH   1  11
TORSDOF 8
REMARK  Name = ../refined-set-2016/4wr7/4wr7_pocket.pdb
REMARK  162 active torsions:
REMARK  status: ('A' for Active; 'I' for Inactive)
REMARK    1  A    between atoms: _1  and  _3
REMARK    2  A    between atoms: _3  and  _4
REMARK    3  A    between atoms: _3  and  _6
REMARK    4  A    between atoms: _6  and  _7
REMARK    5  A    between atoms: _17  and  _19
REMARK    6  A    between atoms: _19  and  _20
REMARK    7  A    between atoms: _19  and  _22
REMARK    8  A    between atoms: _22  and  _23
REMARK    9  A    between atoms: _28  and  _29
REMARK   10  A    between atoms: _31  and  _33
REMARK   11  A    between atoms: _33  and  _34
REMARK   12  A    between atoms: _33  and  _36
REMARK   13  A    between atoms: _36  and  _37
REMARK   14  A    between atoms: _47  and  _49
REMARK   15  A    between atoms: _49  and  _50
REMARK   16  A    between atoms: _49  and  _52
REMARK   17  A    between atoms: _52  and  _53
REMARK   18  A    between atoms: _56  and  _57
REMARK   19  A    between atoms: _62  and  _64
REMARK   20  A    between atoms: _64  and  _65
REMARK   21  A    between atoms: _64  and  _67
REMARK   22  A    between atoms: _67  and  _68
REMARK   23  A    between atoms: _73  and  _75
REMARK   24  A    between atoms: _75  and  _76
REMARK   25  A    between atoms: _75  and  _78
REMARK   26  A    between atoms: _78  and  _79
REMARK   27  A    between atoms: _81  and  _83
REMARK   28  A    between atoms: _83  and  _84
REMARK   29  A    between atoms: _83  and  _86
REMARK   30  A    between atoms: _86  and  _87
REMARK   31  A    between atoms: _92  and  _94
REMARK   32  A    between atoms: _94  and  _95
REMARK   33  A    between atoms: _94  and  _97
REMARK   34  A    between atoms: _97  and  _98
REMARK   35  A    between atoms: _103  and  _105
REMARK   36  A    between atoms: _105  and  _106
REMARK   37  A    between atoms: _105  and  _108
REMARK   38  A    between atoms: _108  and  _109
REMARK   39  A    between atoms: _115  and  _117
REMARK   40  A    between atoms: _117  and  _118
REMARK   41  A    between atoms: _117  and  _120
REMARK   42  A    between atoms: _120  and  _121
REMARK   43  A    between atoms: _121  and  _122
REMARK   44  A    between atoms: _127  and  _129
REMARK   45  A    between atoms: _129  and  _130
REMARK   46  A    between atoms: _129  and  _132
REMARK   47  A    between atoms: _132  and  _133
REMARK   48  A    between atoms: _139  and  _141
REMARK   49  A    between atoms: _152  and  _155
REMARK   50  A    between atoms: _155  and  _156
REMARK   51  A    between atoms: _164  and  _165
REMARK   52  A    between atoms: _173  and  _175
REMARK   53  A    between atoms: _175  and  _176
REMARK   54  A    between atoms: _175  and  _178
REMARK   55  A    between atoms: _178  and  _179
REMARK   56  A    between atoms: _179  and  _180
REMARK   57  A    between atoms: _183  and  _185
REMARK   58  A    between atoms: _185  and  _186
REMARK   59  A    between atoms: _185  and  _188
REMARK   60  A    between atoms: _188  and  _189
REMARK   61  A    between atoms: _194  and  _196
REMARK   62  A    between atoms: _196  and  _197
REMARK   63  A    between atoms: _196  and  _199
REMARK   64  A    between atoms: _199  and  _200
REMARK   65  A    between atoms: _200  and  _201
REMARK   66  A    between atoms: _204  and  _206
REMARK   67  A    between atoms: _206  and  _207
REMARK   68  A    between atoms: _206  and  _209
REMARK   69  A    between atoms: _209  and  _210
REMARK   70  A    between atoms: _213  and  _215
REMARK   71  A    between atoms: _215  and  _216
REMARK   72  A    between atoms: _215  and  _218
REMARK   73  A    between atoms: _218  and  _219
REMARK   74  A    between atoms: _220  and  ZN_460
REMARK   75  A    between atoms: _224  and  _226
REMARK   76  A    between atoms: _226  and  _227
REMARK   77  A    between atoms: _226  and  _229
REMARK   78  A    between atoms: _232  and  _234
REMARK   79  A    between atoms: _234  and  _235
REMARK   80  A    between atoms: _238  and  _240
REMARK   81  A    between atoms: _240  and  _241
REMARK   82  A    between atoms: _240  and  _243
REMARK   83  A    between atoms: _243  and  _244
REMARK   84  A    between atoms: _249  and  _251
REMARK   85  A    between atoms: _251  and  _252
REMARK   86  A    between atoms: _251  and  _254
REMARK   87  A    between atoms: _254  and  _255
REMARK   88  A    between atoms: _258  and  _260
REMARK   89  A    between atoms: _260  and  _261
REMARK   90  A    between atoms: _264  and  _266
REMARK   91  A    between atoms: _266  and  _267
REMARK   92  A    between atoms: _270  and  _272
REMARK   93  A    between atoms: _272  and  _273
REMARK   94  A    between atoms: _276  and  _278
REMARK   95  A    between atoms: _278  and  _279
REMARK   96  A    between atoms: _278  and  _281
REMARK   97  A    between atoms: _281  and  _282
REMARK   98  A    between atoms: _284  and  _286
REMARK   99  A    between atoms: _286  and  _287
REMARK  100  A    between atoms: _286  and  _289
REMARK  101  A    between atoms: _289  and  _290
REMARK  102  A    between atoms: _293  and  _295
REMARK  103  A    between atoms: _295  and  _296
REMARK  104  A    between atoms: _299  and  _301
REMARK  105  A    between atoms: _301  and  _302
REMARK  106  A    between atoms: _301  and  _304
REMARK  107  A    between atoms: _307  and  _309
REMARK  108  A    between atoms: _309  and  _310
REMARK  109  A    between atoms: _309  and  _312
REMARK  110  A    between atoms: _312  and  _313
REMARK  111  A    between atoms: _316  and  _318
REMARK  112  A    between atoms: _318  and  _319
REMARK  113  A    between atoms: _321  and  _323
REMARK  114  A    between atoms: _323  and  _324
REMARK  115  A    between atoms: _326  and  _328
REMARK  116  A    between atoms: _328  and  _329
REMARK  117  A    between atoms: _328  and  _331
REMARK  118  A    between atoms: _331  and  _332
REMARK  119  A    between atoms: _334  and  _336
REMARK  120  A    between atoms: _336  and  _337
REMARK  121  A    between atoms: _336  and  _339
REMARK  122  A    between atoms: _339  and  _340
REMARK  123  A    between atoms: _343  and  _345
REMARK  124  A    between atoms: _345  and  _346
REMARK  125  A    between atoms: _345  and  _348
REMARK  126  A    between atoms: _348  and  _349
REMARK  127  A    between atoms: _352  and  _354
REMARK  128  A    between atoms: _354  and  _355
REMARK  129  A    between atoms: _354  and  _357
REMARK  130  A    between atoms: _357  and  _358
REMARK  131  A    between atoms: _364  and  _365
REMARK  132  A    between atoms: _371  and  _372
REMARK  133  A    between atoms: _377  and  _379
REMARK  134  A    between atoms: _379  and  _380
REMARK  135  A    between atoms: _379  and  _382
REMARK  136  A    between atoms: _382  and  _383
REMARK  137  A    between atoms: _386  and  _388
REMARK  138  A    between atoms: _388  and  _389
REMARK  139  A    between atoms: _388  and  _391
REMARK  140  A    between atoms: _391  and  _392
REMARK  141  A    between atoms: _397  and  _398
REMARK  142  A    between atoms: _400  and  _402
REMARK  143  A    between atoms: _402  and  _403
REMARK  144  A    between atoms: _402  and  _405
REMARK  145  A    between atoms: _405  and  _406
REMARK  146  A    between atoms: _408  and  _410
REMARK  147  A    between atoms: _410  and  _411
REMARK  148  A    between atoms: _410  and  _413
REMARK  149  A    between atoms: _416  and  _418
REMARK  150  A    between atoms: _418  and  _419
REMARK  151  A    between atoms: _418  and  _421
REMARK  152  A    between atoms: _421  and  _422
REMARK  153  A    between atoms: _432  and  _434
REMARK  154  A    between atoms: _434  and  _435
REMARK  155  A    between atoms: _434  and  _437
REMARK  156  A    between atoms: _437  and  _438
REMARK  157  A    between atoms: _443  and  _445
REMARK  158  A    between atoms: _445  and  _446
REMARK  159  A    between atoms: _445  and  _448
REMARK  160  A    between atoms: _448  and  _449
REMARK  161  A    between atoms: _449  and  _450
REMARK  162  A    between atoms: _450  and  _451
REMARK                            x       y       z     vdW  Elec       q    Type
REMARK                         _______ _______ _______ _____ _____    ______ ____
ROOT
ATOM      1  CA  VAL A   3      12.456  32.778  25.792  0.00  0.00    +0.149 C 
ENDROOT
BRANCH   1   3
ATOM      2  C   ALA A   2      10.147  31.966  25.804  0.00  0.00    +0.241 C 
ATOM      3  N   VAL A   3      11.039  32.876  26.225  0.00  0.00    -0.297 N 
ATOM      4  H   VAL A   3      10.738  33.648  26.853  0.00  0.00    +0.150 HD
ATOM      5  O   ALA A   2      10.454  30.968  25.103  0.00  0.00    -0.273 OA
BRANCH   2   6
ATOM      6  CA  ALA A   2       8.675  32.097  26.297  0.00  0.00    +0.149 C 
ATOM      7  CB  ALA A   2       8.277  30.884  27.092  0.00  0.00    +0.031 C 
BRANCH   6  10
ATOM      8  C   LEU A   1       7.011  33.052  24.768  0.00  0.00    +0.238 C 
ATOM      9  O   LEU A   1       6.668  33.918  25.549  0.00  0.00    -0.274 OA
ATOM     10  N   ALA A   2       7.930  32.126  25.027  0.00  0.00    -0.297 N 
ATOM     11  H   ALA A   2       8.129  31.399  24.310  0.00  0.00    +0.150 HD
BRANCH   8  12
ATOM     12  CA  LEU A   1       6.384  32.985  23.374  0.00  0.00    +0.145 C 
BRANCH  12  13
ATOM     13  N   LEU A   1       4.965  33.437  23.357  0.00  0.00    -0.238 NA
ATOM     14  H   LEU A   1       4.725  34.368  23.755  0.00  0.00    +0.142 HD
ENDBRANCH  12  13
BRANCH  12  15
ATOM     15  CB  LEU A   1       7.246  33.823  22.390  0.00  0.00    +0.026 C 
BRANCH  15  16
ATOM     16  CG  LEU A   1       6.757  33.986  20.943  0.00  0.00    +0.002 C 
ATOM     17  CD2 LEU A   1       6.528  32.630  20.289  0.00  0.00    +0.000 C 
ATOM     18  CD1 LEU A   1       7.660  34.922  20.164  0.00  0.00    +0.000 C 
ENDBRANCH  15  16
ENDBRANCH  12  15
ENDBRANCH   8  12
ENDBRANCH   6  10
ENDBRANCH   2   6
ENDBRANCH   1   3
BRANCH   1  19
ATOM     19  C   VAL A   3      13.326  32.758  27.092  0.00  0.00    +0.241 C 
ATOM     20  O   VAL A   3      13.084  33.640  27.955  0.00  0.00    -0.273 OA
ATOM     21  N   ILE A   4      14.191  31.771  27.235  0.00  0.00    -0.297 N 
ATOM     22  H   ILE A   4      14.173  31.002  26.535  0.00  0.00    +0.150 HD
BRANCH  21  23
ATOM     23  CA  ILE A   4      15.183  31.689  28.326  0.00  0.00    +0.149 C 
BRANCH  23  24
ATOM     24  C   ILE A   4      16.373  32.445  27.790  0.00  0.00    +0.241 C 
ATOM     25  N   GLY A   5      16.820  33.453  28.539  0.00  0.00    -0.296 N 
ATOM     26  H   GLY A   5      16.277  33.786  29.361  0.00  0.00    +0.150 HD
ATOM     27  O   ILE A   4      16.910  32.184  26.670  0.00  0.00    -0.273 OA
BRANCH  25  28
ATOM     28  CA  GLY A   5      18.103  34.087  28.175  0.00  0.00    +0.163 C 
BRANCH  28  29
ATOM     29  C   GLY A   5      19.186  33.829  29.206  0.00  0.00    +0.229 C 
ATOM     30  O   GLY A   5      18.893  33.806  30.448  0.00  0.00    -0.286 OA
ENDBRANCH  28  29
ENDBRANCH  25  28
ENDBRANCH  23  24
BRANCH  23  31
ATOM     31  CB  ILE A   4      15.587  30.245  28.635  0.00  0.00    +0.027 C 
ATOM     32  CG2 ILE A   4      16.628  30.260  29.790  0.00  0.00    +0.002 C 
BRANCH  31  33
ATOM     33  CG1 ILE A   4      14.398  29.490  29.245  0.00  0.00    +0.002 C 
ATOM     34  CD1 ILE A   4      14.660  28.012  29.269  0.00  0.00    +0.000 C 
ENDBRANCH  31  33
ENDBRANCH  23  31
ENDBRANCH  21  23
ENDBRANCH   1  19
BRANCH   1  35
ATOM     35  CB  VAL A   3      12.839  33.920  24.875  0.00  0.00    +0.027 C 
ATOM     36  CG2 VAL A   3      14.245  33.640  24.321  0.00  0.00    +0.002 C 
ATOM     37  CG1 VAL A   3      11.862  33.920  23.647  0.00  0.00    +0.002 C 
ENDBRANCH   1  35
TORSDOF 15
REMARK  Name = ../refined-set-2016/4wr7/4wr7_pocket.pdb
REMARK  162 active torsions:
REMARK  status: ('A' for Active; 'I' for Inactive)
REMARK    1  A    between atoms: _1  and  _3
REMARK    2  A    between atoms: _3  and  _4
REMARK    3  A    between atoms: _3  and  _6
REMARK    4  A    between atoms: _6  and  _7
REMARK    5  A    between atoms: _17  and  _19
REMARK    6  A    between atoms: _19  and  _20
REMARK    7  A    between atoms: _19  and  _22
REMARK    8  A    between atoms: _22  and  _23
REMARK    9  A    between atoms: _28  and  _29
REMARK   10  A    between atoms: _31  and  _33
REMARK   11  A    between atoms: _33  and  _34
REMARK   12  A    between atoms: _33  and  _36
REMARK   13  A    between atoms: _36  and  _37
REMARK   14  A    between atoms: _47  and  _49
REMARK   15  A    between atoms: _49  and  _50
REMARK   16  A    between atoms: _49  and  _52
REMARK   17  A    between atoms: _52  and  _53
REMARK   18  A    between atoms: _56  and  _57
REMARK   19  A    between atoms: _62  and  _64
REMARK   20  A    between atoms: _64  and  _65
REMARK   21  A    between atoms: _64  and  _67
REMARK   22  A    between atoms: _67  and  _68
REMARK   23  A    between atoms: _73  and  _75
REMARK   24  A    between atoms: _75  and  _76
REMARK   25  A    between atoms: _75  and  _78
REMARK   26  A    between atoms: _78  and  _79
REMARK   27  A    between atoms: _81  and  _83
REMARK   28  A    between atoms: _83  and  _84
REMARK   29  A    between atoms: _83  and  _86
REMARK   30  A    between atoms: _86  and  _87
REMARK   31  A    between atoms: _92  and  _94
REMARK   32  A    between atoms: _94  and  _95
REMARK   33  A    between atoms: _94  and  _97
REMARK   34  A    between atoms: _97  and  _98
REMARK   35  A    between atoms: _103  and  _105
REMARK   36  A    between atoms: _105  and  _106
REMARK   37  A    between atoms: _105  and  _108
REMARK   38  A    between atoms: _108  and  _109
REMARK   39  A    between atoms: _115  and  _117
REMARK   40  A    between atoms: _117  and  _118
REMARK   41  A    between atoms: _117  and  _120
REMARK   42  A    between atoms: _120  and  _121
REMARK   43  A    between atoms: _121  and  _122
REMARK   44  A    between atoms: _127  and  _129
REMARK   45  A    between atoms: _129  and  _130
REMARK   46  A    between atoms: _129  and  _132
REMARK   47  A    between atoms: _132  and  _133
REMARK   48  A    between atoms: _139  and  _141
REMARK   49  A    between atoms: _152  and  _155
REMARK   50  A    between atoms: _155  and  _156
REMARK   51  A    between atoms: _164  and  _165
REMARK   52  A    between atoms: _173  and  _175
REMARK   53  A    between atoms: _175  and  _176
REMARK   54  A    between atoms: _175  and  _178
REMARK   55  A    between atoms: _178  and  _179
REMARK   56  A    between atoms: _179  and  _180
REMARK   57  A    between atoms: _183  and  _185
REMARK   58  A    between atoms: _185  and  _186
REMARK   59  A    between atoms: _185  and  _188
REMARK   60  A    between atoms: _188  and  _189
REMARK   61  A    between atoms: _194  and  _196
REMARK   62  A    between atoms: _196  and  _197
REMARK   63  A    between atoms: _196  and  _199
REMARK   64  A    between atoms: _199  and  _200
REMARK   65  A    between atoms: _200  and  _201
REMARK   66  A    between atoms: _204  and  _206
REMARK   67  A    between atoms: _206  and  _207
REMARK   68  A    between atoms: _206  and  _209
REMARK   69  A    between atoms: _209  and  _210
REMARK   70  A    between atoms: _213  and  _215
REMARK   71  A    between atoms: _215  and  _216
REMARK   72  A    between atoms: _215  and  _218
REMARK   73  A    between atoms: _218  and  _219
REMARK   74  A    between atoms: _220  and  ZN_460
REMARK   75  A    between atoms: _224  and  _226
REMARK   76  A    between atoms: _226  and  _227
REMARK   77  A    between atoms: _226  and  _229
REMARK   78  A    between atoms: _232  and  _234
REMARK   79  A    between atoms: _234  and  _235
REMARK   80  A    between atoms: _238  and  _240
REMARK   81  A    between atoms: _240  and  _241
REMARK   82  A    between atoms: _240  and  _243
REMARK   83  A    between atoms: _243  and  _244
REMARK   84  A    between atoms: _249  and  _251
REMARK   85  A    between atoms: _251  and  _252
REMARK   86  A    between atoms: _251  and  _254
REMARK   87  A    between atoms: _254  and  _255
REMARK   88  A    between atoms: _258  and  _260
REMARK   89  A    between atoms: _260  and  _261
REMARK   90  A    between atoms: _264  and  _266
REMARK   91  A    between atoms: _266  and  _267
REMARK   92  A    between atoms: _270  and  _272
REMARK   93  A    between atoms: _272  and  _273
REMARK   94  A    between atoms: _276  and  _278
REMARK   95  A    between atoms: _278  and  _279
REMARK   96  A    between atoms: _278  and  _281
REMARK   97  A    between atoms: _281  and  _282
REMARK   98  A    between atoms: _284  and  _286
REMARK   99  A    between atoms: _286  and  _287
REMARK  100  A    between atoms: _286  and  _289
REMARK  101  A    between atoms: _289  and  _290
REMARK  102  A    between atoms: _293  and  _295
REMARK  103  A    between atoms: _295  and  _296
REMARK  104  A    between atoms: _299  and  _301
REMARK  105  A    between atoms: _301  and  _302
REMARK  106  A    between atoms: _301  and  _304
REMARK  107  A    between atoms: _307  and  _309
REMARK  108  A    between atoms: _309  and  _310
REMARK  109  A    between atoms: _309  and  _312
REMARK  110  A    between atoms: _312  and  _313
REMARK  111  A    between atoms: _316  and  _318
REMARK  112  A    between atoms: _318  and  _319
REMARK  113  A    between atoms: _321  and  _323
REMARK  114  A    between atoms: _323  and  _324
REMARK  115  A    between atoms: _326  and  _328
REMARK  116  A    between atoms: _328  and  _329
REMARK  117  A    between atoms: _328  and  _331
REMARK  118  A    between atoms: _331  and  _332
REMARK  119  A    between atoms: _334  and  _336
REMARK  120  A    between atoms: _336  and  _337
REMARK  121  A    between atoms: _336  and  _339
REMARK  122  A    between atoms: _339  and  _340
REMARK  123  A    between atoms: _343  and  _345
REMARK  124  A    between atoms: _345  and  _346
REMARK  125  A    between atoms: _345  and  _348
REMARK  126  A    between atoms: _348  and  _349
REMARK  127  A    between atoms: _352  and  _354
REMARK  128  A    between atoms: _354  and  _355
REMARK  129  A    between atoms: _354  and  _357
REMARK  130  A    between atoms: _357  and  _358
REMARK  131  A    between atoms: _364  and  _365
REMARK  132  A    between atoms: _371  and  _372
REMARK  133  A    between atoms: _377  and  _379
REMARK  134  A    between atoms: _379  and  _380
REMARK  135  A    between atoms: _379  and  _382
REMARK  136  A    between atoms: _382  and  _383
REMARK  137  A    between atoms: _386  and  _388
REMARK  138  A    between atoms: _388  and  _389
REMARK  139  A    between atoms: _388  and  _391
REMARK  140  A    between atoms: _391  and  _392
REMARK  141  A    between atoms: _397  and  _398
REMARK  142  A    between atoms: _400  and  _402
REMARK  143  A    between atoms: _402  and  _403
REMARK  144  A    between atoms: _402  and  _405
REMARK  145  A    between atoms: _405  and  _406
REMARK  146  A    between atoms: _408  and  _410
REMARK  147  A    between atoms: _410  and  _411
REMARK  148  A    between atoms: _410  and  _413
REMARK  149  A    between atoms: _416  and  _418
REMARK  150  A    between atoms: _418  and  _419
REMARK  151  A    between atoms: _418  and  _421
REMARK  152  A    between atoms: _421  and  _422
REMARK  153  A    between atoms: _432  and  _434
REMARK  154  A    between atoms: _434  and  _435
REMARK  155  A    between atoms: _434  and  _437
REMARK  156  A    between atoms: _437  and  _438
REMARK  157  A    between atoms: _443  and  _445
REMARK  158  A    between atoms: _445  and  _446
REMARK  159  A    between atoms: _445  and  _448
REMARK  160  A    between atoms: _448  and  _449
REMARK  161  A    between atoms: _449  and  _450
REMARK  162  A    between atoms: _450  and  _451
REMARK                            x       y       z     vdW  Elec       q    Type
REMARK                         _______ _______ _______ _____ _____    ______ ____
ROOT
ATOM      1  CA  HIS A   5      14.721  42.415  16.676  0.00  0.00    +0.155 C 
ENDROOT
BRANCH   1   2
ATOM      2  C   HIS A   5      13.424  42.295  15.915  0.00  0.00    +0.244 C 
ATOM      3  O   HIS A   5      12.469  41.667  16.440  0.00  0.00    -0.273 OA
ATOM      4  N   PRO A   6      13.385  42.985  14.776  0.00  0.00    -0.272 N 
ATOM      5  CD  PRO A   6      14.268  44.085  14.301  0.00  0.00    +0.094 C 
ATOM      6  CG  PRO A   6      13.378  44.867  13.289  0.00  0.00    +0.024 C 
ATOM      7  CB  PRO A   6      12.510  43.753  12.727  0.00  0.00    +0.031 C 
ATOM      8  CA  PRO A   6      12.089  43.002  14.011  0.00  0.00    +0.152 C 
BRANCH   8   9
ATOM      9  C   PRO A   6      11.674  41.566  13.728  0.00  0.00    +0.244 C 
ATOM     10  N   PRO A   7      10.351  41.310  13.883  0.00  0.00    -0.272 N 
ATOM     11  CA  PRO A   7       9.270  42.296  14.030  0.00  0.00    +0.152 C 
ATOM     12  CB  PRO A   7       8.005  41.481  13.501  0.00  0.00    +0.031 C 
ATOM     13  CG  PRO A   7       8.320  40.028  13.764  0.00  0.00    +0.024 C 
ATOM     14  CD  PRO A   7       9.884  39.917  13.735  0.00  0.00    +0.094 C 
ATOM     15  O   PRO A   6      12.478  40.644  13.490  0.00  0.00    -0.273 OA
BRANCH  11  16
ATOM     16  C   PRO A   7       8.917  42.801  15.416  0.00  0.00    +0.241 C 
ATOM     17  N   LEU A   8       9.774  42.488  16.406  0.00  0.00    -0.297 N 
ATOM     18  H   LEU A   8      10.494  41.749  16.274  0.00  0.00    +0.150 HD
ATOM     19  O   PRO A   7       7.988  43.649  15.601  0.00  0.00    -0.273 OA
BRANCH  17  20
ATOM     20  CA  LEU A   8       9.665  43.226  17.693  0.00  0.00    +0.149 C 
BRANCH  20  21
ATOM     21  C   LEU A   8       8.351  43.034  18.477  0.00  0.00    +0.241 C 
ATOM     22  O   LEU A   8       8.044  43.816  19.369  0.00  0.00    -0.273 OA
ATOM     23  N   TYR A   9       7.646  41.923  18.178  0.00  0.00    -0.298 N 
ATOM     24  H   TYR A   9       8.056  41.209  17.543  0.00  0.00    +0.150 HD
BRANCH  23  25
ATOM     25  CA  TYR A   9       6.312  41.713  18.737  0.00  0.00    +0.141 C 
BRANCH  25  26
ATOM     26  C   TYR A   9       6.458  41.677  20.241  0.00  0.00    +0.227 C 
ATOM     27  O   TYR A   9       7.391  40.998  20.758  0.00  0.00    -0.286 OA
ENDBRANCH  25  26
BRANCH  25  28
ATOM     28  CB  TYR A   9       5.667  40.398  18.298  0.00  0.00    +0.054 C 
BRANCH  28  29
ATOM     29  CG  TYR A   9       5.261  40.391  16.820  0.00  0.00    -0.020 A 
ATOM     30  CD2 TYR A   9       4.683  41.503  16.249  0.00  0.00    -0.001 A 
ATOM     31  CE2 TYR A   9       4.288  41.504  14.893  0.00  0.00    +0.036 A 
ATOM     32  CZ  TYR A   9       4.513  40.360  14.172  0.00  0.00    +0.134 A 
ATOM     33  CE1 TYR A   9       5.007  39.230  14.725  0.00  0.00    +0.036 A 
ATOM     34  CD1 TYR A   9       5.443  39.271  16.079  0.00  0.00    -0.001 A 
BRANCH  32  35
ATOM     35  OH  TYR A   9       4.148  40.318  12.805  0.00  0.00    -0.506 OA
ATOM     36  HH  TYR A   9       3.804  41.204  12.529  0.00  0.00    +0.292 HD
ENDBRANCH  32  35
ENDBRANCH  28  29
ENDBRANCH  25  28
ENDBRANCH  23  25
ENDBRANCH  20  21
BRANCH  20  37
ATOM     37  CB  LEU A   8       9.975  44.704  17.471  0.00  0.00    +0.029 C 
BRANCH  37  38
ATOM     38  CG  LEU A   8      11.406  44.979  17.025  0.00  0.00    +0.002 C 
ATOM     39  CD2 LEU A   8      12.392  44.801  18.236  0.00  0.00    +0.000 C 
ATOM     40  CD1 LEU A   8      11.453  46.459  16.711  0.00  0.00    +0.000 C 
ENDBRANCH  37  38
ENDBRANCH  20  37
ENDBRANCH  17  20
ENDBRANCH  11  16
ENDBRANCH   8   9
ENDBRANCH   1   2
BRANCH   1  43
ATOM     41  C   THR A   4      15.148  42.307  19.113  0.00  0.00    +0.243 C 
ATOM     42  O   THR A   4      15.997  43.158  19.042  0.00  0.00    -0.273 OA
ATOM     43  N   HIS A   5      14.481  41.879  18.011  0.00  0.00    -0.297 N 
ATOM     44  H   HIS A   5      13.765  41.133  18.124  0.00  0.00    +0.150 HD
BRANCH  41  45
ATOM     45  CA  THR A   4      14.656  41.814  20.442  0.00  0.00    +0.176 C 
BRANCH  45  48
ATOM     46  C   LEU A   3      12.368  41.133  20.465  0.00  0.00    +0.241 C 
ATOM     47  O   LEU A   3      12.024  42.305  20.449  0.00  0.00    -0.273 OA
ATOM     48  N   THR A   4      13.673  40.790  20.325  0.00  0.00    -0.295 N 
ATOM     49  H   THR A   4      13.949  39.805  20.137  0.00  0.00    +0.150 HD
BRANCH  46  50
ATOM     50  CA  LEU A   3      11.319  39.972  20.453  0.00  0.00    +0.149 C 
BRANCH  50  53
ATOM     51  C   SER A   2      10.361  40.590  22.600  0.00  0.00    +0.243 C 
ATOM     52  O   SER A   2      11.426  40.270  23.218  0.00  0.00    -0.273 OA
ATOM     53  N   LEU A   3      10.157  40.350  21.298  0.00  0.00    -0.297 N 
ATOM     54  H   LEU A   3       9.205  40.427  20.887  0.00  0.00    +0.150 HD
BRANCH  51  55
ATOM     55  CA  SER A   2       9.317  41.494  23.216  0.00  0.00    +0.178 C 
BRANCH  55  58
ATOM     56  C   GLY A   1       8.441  41.492  25.468  0.00  0.00    +0.240 C 
ATOM     57  O   GLY A   1       7.293  41.105  25.112  0.00  0.00    -0.274 OA
ATOM     58  N   SER A   2       9.503  41.554  24.680  0.00  0.00    -0.295 N 
ATOM     59  H   SER A   2      10.456  41.644  25.087  0.00  0.00    +0.150 HD
BRANCH  56  60
ATOM     60  CA  GLY A   1       8.646  41.950  26.865  0.00  0.00    +0.169 C 
BRANCH  60  61
ATOM     61  N   GLY A   1       7.981  41.098  27.845  0.00  0.00    -0.236 NA
ATOM     62  H   GLY A   1       7.836  40.090  27.633  0.00  0.00    +0.142 HD
ENDBRANCH  60  61
ENDBRANCH  56  60
ENDBRANCH  55  58
BRANCH  55  63
ATOM     63  CB  SER A   2       9.342  42.896  22.613  0.00  0.00    +0.166 C 
BRANCH  63  64
ATOM     64  OG  SER A   2      10.715  43.400  22.531  0.00  0.00    -0.380 OA
ATOM     65  H   SER A   2      11.253  42.796  21.961  0.00  0.00    +0.211 HD
ENDBRANCH  63  64
ENDBRANCH  55  63
ENDBRANCH  51  55
ENDBRANCH  50  53
BRANCH  50  66
ATOM     66  CB  LEU A   3      10.865  39.722  19.007  0.00  0.00    +0.029 C 
BRANCH  66  67
ATOM     67  CG  LEU A   3       9.782  38.629  19.005  0.00  0.00    +0.002 C 
ATOM     68  CD2 LEU A   3      10.142  37.243  19.439  0.00  0.00    +0.000 C 
ATOM     69  CD1 LEU A   3       9.172  38.608  17.593  0.00  0.00    +0.000 C 
ENDBRANCH  66  67
ENDBRANCH  50  66
ENDBRANCH  46  50
ENDBRANCH  45  48
BRANCH  45  70
ATOM     70  CB  THR A   4      15.924  41.373  21.259  0.00  0.00    +0.137 C 
ATOM     71  CG2 THR A   4      15.472  40.930  22.667  0.00  0.00    +0.034 C 
BRANCH  70  72
ATOM     72  OG1 THR A   4      16.586  40.255  20.619  0.00  0.00    -0.382 OA
ATOM     73  HG1 THR A   4      17.380  39.995  21.150  0.00  0.00    +0.210 HD
ENDBRANCH  70  72
ENDBRANCH  45  70
ENDBRANCH  41  45
ENDBRANCH   1  43
BRANCH   1  74
ATOM     74  CB  HIS A   5      15.879  41.782  15.942  0.00  0.00    +0.076 C 
BRANCH  74  75
ATOM     75  CG  HIS A   5      15.818  40.320  15.801  0.00  0.00    +0.082 A 
ATOM     76  CD2 HIS A   5      16.708  39.374  16.207  0.00  0.00    +0.115 A 
ATOM     77  NE2 HIS A   5      16.307  38.162  15.734  0.00  0.00    -0.221 NA
ATOM     78  CE1 HIS A   5      15.181  38.333  14.957  0.00  0.00    +0.199 A 
ATOM     79  ND1 HIS A   5      14.891  39.668  14.948  0.00  0.00    -0.227 NA
ENDBRANCH  74  75
ENDBRANCH   1  74
TORSDOF 29
REMARK  Name = ../refined-set-2016/4wr7/4wr7_pocket.pdb
REMARK  162 active torsions:
REMARK  status: ('A' for Active; 'I' for Inactive)
REMARK    1  A    between atoms: _1  and  _3
REMARK    2  A    between atoms: _3  and  _4
REMARK    3  A    between atoms: _3  and  _6
REMARK    4  A    between atoms: _6  and  _7
REMARK    5  A    between atoms: _17  and  _19
REMARK    6  A    between atoms: _19  and  _20
REMARK    7  A    between atoms: _19  and  _22
REMARK    8  A    between atoms: _22  and  _23
REMARK    9  A    between atoms: _28  and  _29
REMARK   10  A    between atoms: _31  and  _33
REMARK   11  A    between atoms: _33  and  _34
REMARK   12  A    between atoms: _33  and  _36
REMARK   13  A    between atoms: _36  and  _37
REMARK   14  A    between atoms: _47  and  _49
REMARK   15  A    between atoms: _49  and  _50
REMARK   16  A    between atoms: _49  and  _52
REMARK   17  A    between atoms: _52  and  _53
REMARK   18  A    between atoms: _56  and  _57
REMARK   19  A    between atoms: _62  and  _64
REMARK   20  A    between atoms: _64  and  _65
REMARK   21  A    between atoms: _64  and  _67
REMARK   22  A    between atoms: _67  and  _68
REMARK   23  A    between atoms: _73  and  _75
REMARK   24  A    between atoms: _75  and  _76
REMARK   25  A    between atoms: _75  and  _78
REMARK   26  A    between atoms: _78  and  _79
REMARK   27  A    between atoms: _81  and  _83
REMARK   28  A    between atoms: _83  and  _84
REMARK   29  A    between atoms: _83  and  _86
REMARK   30  A    between atoms: _86  and  _87
REMARK   31  A    between atoms: _92  and  _94
REMARK   32  A    between atoms: _94  and  _95
REMARK   33  A    between atoms: _94  and  _97
REMARK   34  A    between atoms: _97  and  _98
REMARK   35  A    between atoms: _103  and  _105
REMARK   36  A    between atoms: _105  and  _106
REMARK   37  A    between atoms: _105  and  _108
REMARK   38  A    between atoms: _108  and  _109
REMARK   39  A    between atoms: _115  and  _117
REMARK   40  A    between atoms: _117  and  _118
REMARK   41  A    between atoms: _117  and  _120
REMARK   42  A    between atoms: _120  and  _121
REMARK   43  A    between atoms: _121  and  _122
REMARK   44  A    between atoms: _127  and  _129
REMARK   45  A    between atoms: _129  and  _130
REMARK   46  A    between atoms: _129  and  _132
REMARK   47  A    between atoms: _132  and  _133
REMARK   48  A    between atoms: _139  and  _141
REMARK   49  A    between atoms: _152  and  _155
REMARK   50  A    between atoms: _155  and  _156
REMARK   51  A    between atoms: _164  and  _165
REMARK   52  A    between atoms: _173  and  _175
REMARK   53  A    between atoms: _175  and  _176
REMARK   54  A    between atoms: _175  and  _178
REMARK   55  A    between atoms: _178  and  _179
REMARK   56  A    between atoms: _179  and  _180
REMARK   57  A    between atoms: _183  and  _185
REMARK   58  A    between atoms: _185  and  _186
REMARK   59  A    between atoms: _185  and  _188
REMARK   60  A    between atoms: _188  and  _189
REMARK   61  A    between atoms: _194  and  _196
REMARK   62  A    between atoms: _196  and  _197
REMARK   63  A    between atoms: _196  and  _199
REMARK   64  A    between atoms: _199  and  _200
REMARK   65  A    between atoms: _200  and  _201
REMARK   66  A    between atoms: _204  and  _206
REMARK   67  A    between atoms: _206  and  _207
REMARK   68  A    between atoms: _206  and  _209
REMARK   69  A    between atoms: _209  and  _210
REMARK   70  A    between atoms: _213  and  _215
REMARK   71  A    between atoms: _215  and  _216
REMARK   72  A    between atoms: _215  and  _218
REMARK   73  A    between atoms: _218  and  _219
REMARK   74  A    between atoms: _220  and  ZN_460
REMARK   75  A    between atoms: _224  and  _226
REMARK   76  A    between atoms: _226  and  _227
REMARK   77  A    between atoms: _226  and  _229
REMARK   78  A    between atoms: _232  and  _234
REMARK   79  A    between atoms: _234  and  _235
REMARK   80  A    between atoms: _238  and  _240
REMARK   81  A    between atoms: _240  and  _241
REMARK   82  A    between atoms: _240  and  _243
REMARK   83  A    between atoms: _243  and  _244
REMARK   84  A    between atoms: _249  and  _251
REMARK   85  A    between atoms: _251  and  _252
REMARK   86  A    between atoms: _251  and  _254
REMARK   87  A    between atoms: _254  and  _255
REMARK   88  A    between atoms: _258  and  _260
REMARK   89  A    between atoms: _260  and  _261
REMARK   90  A    between atoms: _264  and  _266
REMARK   91  A    between atoms: _266  and  _267
REMARK   92  A    between atoms: _270  and  _272
REMARK   93  A    between atoms: _272  and  _273
REMARK   94  A    between atoms: _276  and  _278
REMARK   95  A    between atoms: _278  and  _279
REMARK   96  A    between atoms: _278  and  _281
REMARK   97  A    between atoms: _281  and  _282
REMARK   98  A    between atoms: _284  and  _286
REMARK   99  A    between atoms: _286  and  _287
REMARK  100  A    between atoms: _286  and  _289
REMARK  101  A    between atoms: _289  and  _290
REMARK  102  A    between atoms: _293  and  _295
REMARK  103  A    between atoms: _295  and  _296
REMARK  104  A    between atoms: _299  and  _301
REMARK  105  A    between atoms: _301  and  _302
REMARK  106  A    between atoms: _301  and  _304
REMARK  107  A    between atoms: _307  and  _309
REMARK  108  A    between atoms: _309  and  _310
REMARK  109  A    between atoms: _309  and  _312
REMARK  110  A    between atoms: _312  and  _313
REMARK  111  A    between atoms: _316  and  _318
REMARK  112  A    between atoms: _318  and  _319
REMARK  113  A    between atoms: _321  and  _323
REMARK  114  A    between atoms: _323  and  _324
REMARK  115  A    between atoms: _326  and  _328
REMARK  116  A    between atoms: _328  and  _329
REMARK  117  A    between atoms: _328  and  _331
REMARK  118  A    between atoms: _331  and  _332
REMARK  119  A    between atoms: _334  and  _336
REMARK  120  A    between atoms: _336  and  _337
REMARK  121  A    between atoms: _336  and  _339
REMARK  122  A    between atoms: _339  and  _340
REMARK  123  A    between atoms: _343  and  _345
REMARK  124  A    between atoms: _345  and  _346
REMARK  125  A    between atoms: _345  and  _348
REMARK  126  A    between atoms: _348  and  _349
REMARK  127  A    between atoms: _352  and  _354
REMARK  128  A    between atoms: _354  and  _355
REMARK  129  A    between atoms: _354  and  _357
REMARK  130  A    between atoms: _357  and  _358
REMARK  131  A    between atoms: _364  and  _365
REMARK  132  A    between atoms: _371  and  _372
REMARK  133  A    between atoms: _377  and  _379
REMARK  134  A    between atoms: _379  and  _380
REMARK  135  A    between atoms: _379  and  _382
REMARK  136  A    between atoms: _382  and  _383
REMARK  137  A    between atoms: _386  and  _388
REMARK  138  A    between atoms: _388  and  _389
REMARK  139  A    between atoms: _388  and  _391
REMARK  140  A    between atoms: _391  and  _392
REMARK  141  A    between atoms: _397  and  _398
REMARK  142  A    between atoms: _400  and  _402
REMARK  143  A    between atoms: _402  and  _403
REMARK  144  A    between atoms: _402  and  _405
REMARK  145  A    between atoms: _405  and  _406
REMARK  146  A    between atoms: _408  and  _410
REMARK  147  A    between atoms: _410  and  _411
REMARK  148  A    between atoms: _410  and  _413
REMARK  149  A    between atoms: _416  and  _418
REMARK  150  A    between atoms: _418  and  _419
REMARK  151  A    between atoms: _418  and  _421
REMARK  152  A    between atoms: _421  and  _422
REMARK  153  A    between atoms: _432  and  _434
REMARK  154  A    between atoms: _434  and  _435
REMARK  155  A    between atoms: _434  and  _437
REMARK  156  A    between atoms: _437  and  _438
REMARK  157  A    between atoms: _443  and  _445
REMARK  158  A    between atoms: _445  and  _446
REMARK  159  A    between atoms: _445  and  _448
REMARK  160  A    between atoms: _448  and  _449
REMARK  161  A    between atoms: _449  and  _450
REMARK  162  A    between atoms: _450  and  _451
REMARK                            x       y       z     vdW  Elec       q    Type
REMARK                         _______ _______ _______ _____ _____    ______ ____
ROOT
ATOM      1  C   SER A   1       5.588  37.547  23.678  0.00  0.00    +0.241 C 
ATOM      2  N   VAL A   2       6.629  38.093  24.341  0.00  0.00    -0.298 N 
ATOM      3  H   VAL A   2       6.752  39.125  24.379  0.00  0.00    +0.150 HD
ATOM      4  O   SER A   1       5.403  36.337  23.766  0.00  0.00    -0.274 OA
ENDROOT
BRANCH   1   5
ATOM      5  CA  SER A   1       4.757  38.462  22.790  0.00  0.00    +0.174 C 
BRANCH   5   6
ATOM      6  N   SER A   1       5.334  39.752  22.645  0.00  0.00    -0.236 NA
ATOM      7  H   SER A   1       6.306  39.787  22.277  0.00  0.00    +0.142 HD
ENDBRANCH   5   6
BRANCH   5   8
ATOM      8  CB  SER A   1       4.596  37.767  21.433  0.00  0.00    +0.163 C 
BRANCH   8   9
ATOM      9  OG  SER A   1       5.908  37.840  20.753  0.00  0.00    -0.380 OA
ATOM     10  H   SER A   1       5.845  37.400  19.869  0.00  0.00    +0.211 HD
ENDBRANCH   8   9
ENDBRANCH   5   8
ENDBRANCH   1   5
BRANCH   2  11
ATOM     11  CA  VAL A   2       7.585  37.197  25.009  0.00  0.00    +0.137 C 
BRANCH  11  12
ATOM     12  CB  VAL A   2       9.049  37.465  24.508  0.00  0.00    +0.026 C 
ATOM     13  CG2 VAL A   2      10.075  36.637  25.287  0.00  0.00    +0.002 C 
ATOM     14  CG1 VAL A   2       9.276  37.315  22.971  0.00  0.00    +0.002 C 
ENDBRANCH  11  12
BRANCH  11  15
ATOM     15  C   VAL A   2       7.552  37.347  26.535  0.00  0.00    +0.227 C 
ATOM     16  O   VAL A   2       7.655  38.452  26.992  0.00  0.00    -0.286 OA
ENDBRANCH  11  15
ENDBRANCH   2  11
TORSDOF 7
REMARK  Name = ../refined-set-2016/4wr7/4wr7_pocket.pdb
REMARK  162 active torsions:
REMARK  status: ('A' for Active; 'I' for Inactive)
REMARK    1  A    between atoms: _1  and  _3
REMARK    2  A    between atoms: _3  and  _4
REMARK    3  A    between atoms: _3  and  _6
REMARK    4  A    between atoms: _6  and  _7
REMARK    5  A    between atoms: _17  and  _19
REMARK    6  A    between atoms: _19  and  _20
REMARK    7  A    between atoms: _19  and  _22
REMARK    8  A    between atoms: _22  and  _23
REMARK    9  A    between atoms: _28  and  _29
REMARK   10  A    between atoms: _31  and  _33
REMARK   11  A    between atoms: _33  and  _34
REMARK   12  A    between atoms: _33  and  _36
REMARK   13  A    between atoms: _36  and  _37
REMARK   14  A    between atoms: _47  and  _49
REMARK   15  A    between atoms: _49  and  _50
REMARK   16  A    between atoms: _49  and  _52
REMARK   17  A    between atoms: _52  and  _53
REMARK   18  A    between atoms: _56  and  _57
REMARK   19  A    between atoms: _62  and  _64
REMARK   20  A    between atoms: _64  and  _65
REMARK   21  A    between atoms: _64  and  _67
REMARK   22  A    between atoms: _67  and  _68
REMARK   23  A    between atoms: _73  and  _75
REMARK   24  A    between atoms: _75  and  _76
REMARK   25  A    between atoms: _75  and  _78
REMARK   26  A    between atoms: _78  and  _79
REMARK   27  A    between atoms: _81  and  _83
REMARK   28  A    between atoms: _83  and  _84
REMARK   29  A    between atoms: _83  and  _86
REMARK   30  A    between atoms: _86  and  _87
REMARK   31  A    between atoms: _92  and  _94
REMARK   32  A    between atoms: _94  and  _95
REMARK   33  A    between atoms: _94  and  _97
REMARK   34  A    between atoms: _97  and  _98
REMARK   35  A    between atoms: _103  and  _105
REMARK   36  A    between atoms: _105  and  _106
REMARK   37  A    between atoms: _105  and  _108
REMARK   38  A    between atoms: _108  and  _109
REMARK   39  A    between atoms: _115  and  _117
REMARK   40  A    between atoms: _117  and  _118
REMARK   41  A    between atoms: _117  and  _120
REMARK   42  A    between atoms: _120  and  _121
REMARK   43  A    between atoms: _121  and  _122
REMARK   44  A    between atoms: _127  and  _129
REMARK   45  A    between atoms: _129  and  _130
REMARK   46  A    between atoms: _129  and  _132
REMARK   47  A    between atoms: _132  and  _133
REMARK   48  A    between atoms: _139  and  _141
REMARK   49  A    between atoms: _152  and  _155
REMARK   50  A    between atoms: _155  and  _156
REMARK   51  A    between atoms: _164  and  _165
REMARK   52  A    between atoms: _173  and  _175
REMARK   53  A    between atoms: _175  and  _176
REMARK   54  A    between atoms: _175  and  _178
REMARK   55  A    between atoms: _178  and  _179
REMARK   56  A    between atoms: _179  and  _180
REMARK   57  A    between atoms: _183  and  _185
REMARK   58  A    between atoms: _185  and  _186
REMARK   59  A    between atoms: _185  and  _188
REMARK   60  A    between atoms: _188  and  _189
REMARK   61  A    between atoms: _194  and  _196
REMARK   62  A    between atoms: _196  and  _197
REMARK   63  A    between atoms: _196  and  _199
REMARK   64  A    between atoms: _199  and  _200
REMARK   65  A    between atoms: _200  and  _201
REMARK   66  A    between atoms: _204  and  _206
REMARK   67  A    between atoms: _206  and  _207
REMARK   68  A    between atoms: _206  and  _209
REMARK   69  A    between atoms: _209  and  _210
REMARK   70  A    between atoms: _213  and  _215
REMARK   71  A    between atoms: _215  and  _216
REMARK   72  A    between atoms: _215  and  _218
REMARK   73  A    between atoms: _218  and  _219
REMARK   74  A    between atoms: _220  and  ZN_460
REMARK   75  A    between atoms: _224  and  _226
REMARK   76  A    between atoms: _226  and  _227
REMARK   77  A    between atoms: _226  and  _229
REMARK   78  A    between atoms: _232  and  _234
REMARK   79  A    between atoms: _234  and  _235
REMARK   80  A    between atoms: _238  and  _240
REMARK   81  A    between atoms: _240  and  _241
REMARK   82  A    between atoms: _240  and  _243
REMARK   83  A    between atoms: _243  and  _244
REMARK   84  A    between atoms: _249  and  _251
REMARK   85  A    between atoms: _251  and  _252
REMARK   86  A    between atoms: _251  and  _254
REMARK   87  A    between atoms: _254  and  _255
REMARK   88  A    between atoms: _258  and  _260
REMARK   89  A    between atoms: _260  and  _261
REMARK   90  A    between atoms: _264  and  _266
REMARK   91  A    between atoms: _266  and  _267
REMARK   92  A    between atoms: _270  and  _272
REMARK   93  A    between atoms: _272  and  _273
REMARK   94  A    between atoms: _276  and  _278
REMARK   95  A    between atoms: _278  and  _279
REMARK   96  A    between atoms: _278  and  _281
REMARK   97  A    between atoms: _281  and  _282
REMARK   98  A    between atoms: _284  and  _286
REMARK   99  A    between atoms: _286  and  _287
REMARK  100  A    between atoms: _286  and  _289
REMARK  101  A    between atoms: _289  and  _290
REMARK  102  A    between atoms: _293  and  _295
REMARK  103  A    between atoms: _295  and  _296
REMARK  104  A    between atoms: _299  and  _301
REMARK  105  A    between atoms: _301  and  _302
REMARK  106  A    between atoms: _301  and  _304
REMARK  107  A    between atoms: _307  and  _309
REMARK  108  A    between atoms: _309  and  _310
REMARK  109  A    between atoms: _309  and  _312
REMARK  110  A    between atoms: _312  and  _313
REMARK  111  A    between atoms: _316  and  _318
REMARK  112  A    between atoms: _318  and  _319
REMARK  113  A    between atoms: _321  and  _323
REMARK  114  A    between atoms: _323  and  _324
REMARK  115  A    between atoms: _326  and  _328
REMARK  116  A    between atoms: _328  and  _329
REMARK  117  A    between atoms: _328  and  _331
REMARK  118  A    between atoms: _331  and  _332
REMARK  119  A    between atoms: _334  and  _336
REMARK  120  A    between atoms: _336  and  _337
REMARK  121  A    between atoms: _336  and  _339
REMARK  122  A    between atoms: _339  and  _340
REMARK  123  A    between atoms: _343  and  _345
REMARK  124  A    between atoms: _345  and  _346
REMARK  125  A    between atoms: _345  and  _348
REMARK  126  A    between atoms: _348  and  _349
REMARK  127  A    between atoms: _352  and  _354
REMARK  128  A    between atoms: _354  and  _355
REMARK  129  A    between atoms: _354  and  _357
REMARK  130  A    between atoms: _357  and  _358
REMARK  131  A    between atoms: _364  and  _365
REMARK  132  A    between atoms: _371  and  _372
REMARK  133  A    between atoms: _377  and  _379
REMARK  134  A    between atoms: _379  and  _380
REMARK  135  A    between atoms: _379  and  _382
REMARK  136  A    between atoms: _382  and  _383
REMARK  137  A    between atoms: _386  and  _388
REMARK  138  A    between atoms: _388  and  _389
REMARK  139  A    between atoms: _388  and  _391
REMARK  140  A    between atoms: _391  and  _392
REMARK  141  A    between atoms: _397  and  _398
REMARK  142  A    between atoms: _400  and  _402
REMARK  143  A    between atoms: _402  and  _403
REMARK  144  A    between atoms: _402  and  _405
REMARK  145  A    between atoms: _405  and  _406
REMARK  146  A    between atoms: _408  and  _410
REMARK  147  A    between atoms: _410  and  _411
REMARK  148  A    between atoms: _410  and  _413
REMARK  149  A    between atoms: _416  and  _418
REMARK  150  A    between atoms: _418  and  _419
REMARK  151  A    between atoms: _418  and  _421
REMARK  152  A    between atoms: _421  and  _422
REMARK  153  A    between atoms: _432  and  _434
REMARK  154  A    between atoms: _434  and  _435
REMARK  155  A    between atoms: _434  and  _437
REMARK  156  A    between atoms: _437  and  _438
REMARK  157  A    between atoms: _443  and  _445
REMARK  158  A    between atoms: _445  and  _446
REMARK  159  A    between atoms: _445  and  _448
REMARK  160  A    between atoms: _448  and  _449
REMARK  161  A    between atoms: _449  and  _450
REMARK  162  A    between atoms: _450  and  _451
REMARK                            x       y       z     vdW  Elec       q    Type
REMARK                         _______ _______ _______ _____ _____    ______ ____
ROOT
ATOM      1  CG  TRP A   1      12.325  38.207  27.911  0.00  0.00    -0.002 A 
ATOM      2  CD1 TRP A   1      11.546  39.084  27.199  0.00  0.00    +0.068 A 
ATOM      3  NE1 TRP A   1      12.007  39.195  25.875  0.00  0.00    -0.352 N 
ATOM      4  CE2 TRP A   1      13.074  38.390  25.687  0.00  0.00    +0.056 A 
ATOM      5  CZ2 TRP A   1      13.889  38.181  24.548  0.00  0.00    +0.017 A 
ATOM      6  CH2 TRP A   1      14.865  37.218  24.669  0.00  0.00    +0.001 A 
ATOM      7  CZ3 TRP A   1      15.186  36.612  25.885  0.00  0.00    +0.000 A 
ATOM      8  CE3 TRP A   1      14.377  36.773  27.042  0.00  0.00    +0.001 A 
ATOM      9  HE1 TRP A   1      11.587  39.808  25.147  0.00  0.00    +0.166 HD
ATOM     10  CD2 TRP A   1      13.345  37.720  26.963  0.00  0.00    +0.013 A 
ENDROOT
BRANCH   1  11
ATOM     11  CB  TRP A   1      12.169  37.736  29.332  0.00  0.00    +0.053 C 
BRANCH  11  12
ATOM     12  CA  TRP A   1      11.480  36.412  29.354  0.00  0.00    +0.137 C 
BRANCH  12  13
ATOM     13  N   TRP A   1      10.019  36.594  29.279  0.00  0.00    -0.239 NA
ATOM     14  H   TRP A   1       9.615  37.467  29.674  0.00  0.00    +0.142 HD
ENDBRANCH  12  13
BRANCH  12  15
ATOM     15  C   TRP A   1      11.781  35.675  30.624  0.00  0.00    +0.224 C 
ATOM     16  O   TRP A   1      11.182  35.993  31.700  0.00  0.00    -0.287 OA
ENDBRANCH  12  15
ENDBRANCH  11  12
ENDBRANCH   1  11
TORSDOF 4
REMARK  Name = ../refined-set-2016/4wr7/4wr7_pocket.pdb
REMARK  162 active torsions:
REMARK  status: ('A' for Active; 'I' for Inactive)
REMARK    1  A    between atoms: _1  and  _3
REMARK    2  A    between atoms: _3  and  _4
REMARK    3  A    between atoms: _3  and  _6
REMARK    4  A    between atoms: _6  and  _7
REMARK    5  A    between atoms: _17  and  _19
REMARK    6  A    between atoms: _19  and  _20
REMARK    7  A    between atoms: _19  and  _22
REMARK    8  A    between atoms: _22  and  _23
REMARK    9  A    between atoms: _28  and  _29
REMARK   10  A    between atoms: _31  and  _33
REMARK   11  A    between atoms: _33  and  _34
REMARK   12  A    between atoms: _33  and  _36
REMARK   13  A    between atoms: _36  and  _37
REMARK   14  A    between atoms: _47  and  _49
REMARK   15  A    between atoms: _49  and  _50
REMARK   16  A    between atoms: _49  and  _52
REMARK   17  A    between atoms: _52  and  _53
REMARK   18  A    between atoms: _56  and  _57
REMARK   19  A    between atoms: _62  and  _64
REMARK   20  A    between atoms: _64  and  _65
REMARK   21  A    between atoms: _64  and  _67
REMARK   22  A    between atoms: _67  and  _68
REMARK   23  A    between atoms: _73  and  _75
REMARK   24  A    between atoms: _75  and  _76
REMARK   25  A    between atoms: _75  and  _78
REMARK   26  A    between atoms: _78  and  _79
REMARK   27  A    between atoms: _81  and  _83
REMARK   28  A    between atoms: _83  and  _84
REMARK   29  A    between atoms: _83  and  _86
REMARK   30  A    between atoms: _86  and  _87
REMARK   31  A    between atoms: _92  and  _94
REMARK   32  A    between atoms: _94  and  _95
REMARK   33  A    between atoms: _94  and  _97
REMARK   34  A    between atoms: _97  and  _98
REMARK   35  A    between atoms: _103  and  _105
REMARK   36  A    between atoms: _105  and  _106
REMARK   37  A    between atoms: _105  and  _108
REMARK   38  A    between atoms: _108  and  _109
REMARK   39  A    between atoms: _115  and  _117
REMARK   40  A    between atoms: _117  and  _118
REMARK   41  A    between atoms: _117  and  _120
REMARK   42  A    between atoms: _120  and  _121
REMARK   43  A    between atoms: _121  and  _122
REMARK   44  A    between atoms: _127  and  _129
REMARK   45  A    between atoms: _129  and  _130
REMARK   46  A    between atoms: _129  and  _132
REMARK   47  A    between atoms: _132  and  _133
REMARK   48  A    between atoms: _139  and  _141
REMARK   49  A    between atoms: _152  and  _155
REMARK   50  A    between atoms: _155  and  _156
REMARK   51  A    between atoms: _164  and  _165
REMARK   52  A    between atoms: _173  and  _175
REMARK   53  A    between atoms: _175  and  _176
REMARK   54  A    between atoms: _175  and  _178
REMARK   55  A    between atoms: _178  and  _179
REMARK   56  A    between atoms: _179  and  _180
REMARK   57  A    between atoms: _183  and  _185
REMARK   58  A    between atoms: _185  and  _186
REMARK   59  A    between atoms: _185  and  _188
REMARK   60  A    between atoms: _188  and  _189
REMARK   61  A    between atoms: _194  and  _196
REMARK   62  A    between atoms: _196  and  _197
REMARK   63  A    between atoms: _196  and  _199
REMARK   64  A    between atoms: _199  and  _200
REMARK   65  A    between atoms: _200  and  _201
REMARK   66  A    between atoms: _204  and  _206
REMARK   67  A    between atoms: _206  and  _207
REMARK   68  A    between atoms: _206  and  _209
REMARK   69  A    between atoms: _209  and  _210
REMARK   70  A    between atoms: _213  and  _215
REMARK   71  A    between atoms: _215  and  _216
REMARK   72  A    between atoms: _215  and  _218
REMARK   73  A    between atoms: _218  and  _219
REMARK   74  A    between atoms: _220  and  ZN_460
REMARK   75  A    between atoms: _224  and  _226
REMARK   76  A    between atoms: _226  and  _227
REMARK   77  A    between atoms: _226  and  _229
REMARK   78  A    between atoms: _232  and  _234
REMARK   79  A    between atoms: _234  and  _235
REMARK   80  A    between atoms: _238  and  _240
REMARK   81  A    between atoms: _240  and  _241
REMARK   82  A    between atoms: _240  and  _243
REMARK   83  A    between atoms: _243  and  _244
REMARK   84  A    between atoms: _249  and  _251
REMARK   85  A    between atoms: _251  and  _252
REMARK   86  A    between atoms: _251  and  _254
REMARK   87  A    between atoms: _254  and  _255
REMARK   88  A    between atoms: _258  and  _260
REMARK   89  A    between atoms: _260  and  _261
REMARK   90  A    between atoms: _264  and  _266
REMARK   91  A    between atoms: _266  and  _267
REMARK   92  A    between atoms: _270  and  _272
REMARK   93  A    between atoms: _272  and  _273
REMARK   94  A    between atoms: _276  and  _278
REMARK   95  A    between atoms: _278  and  _279
REMARK   96  A    between atoms: _278  and  _281
REMARK   97  A    between atoms: _281  and  _282
REMARK   98  A    between atoms: _284  and  _286
REMARK   99  A    between atoms: _286  and  _287
REMARK  100  A    between atoms: _286  and  _289
REMARK  101  A    between atoms: _289  and  _290
REMARK  102  A    between atoms: _293  and  _295
REMARK  103  A    between atoms: _295  and  _296
REMARK  104  A    between atoms: _299  and  _301
REMARK  105  A    between atoms: _301  and  _302
REMARK  106  A    between atoms: _301  and  _304
REMARK  107  A    between atoms: _307  and  _309
REMARK  108  A    between atoms: _309  and  _310
REMARK  109  A    between atoms: _309  and  _312
REMARK  110  A    between atoms: _312  and  _313
REMARK  111  A    between atoms: _316  and  _318
REMARK  112  A    between atoms: _318  and  _319
REMARK  113  A    between atoms: _321  and  _323
REMARK  114  A    between atoms: _323  and  _324
REMARK  115  A    between atoms: _326  and  _328
REMARK  116  A    between atoms: _328  and  _329
REMARK  117  A    between atoms: _328  and  _331
REMARK  118  A    between atoms: _331  and  _332
REMARK  119  A    between atoms: _334  and  _336
REMARK  120  A    between atoms: _336  and  _337
REMARK  121  A    between atoms: _336  and  _339
REMARK  122  A    between atoms: _339  and  _340
REMARK  123  A    between atoms: _343  and  _345
REMARK  124  A    between atoms: _345  and  _346
REMARK  125  A    between atoms: _345  and  _348
REMARK  126  A    between atoms: _348  and  _349
REMARK  127  A    between atoms: _352  and  _354
REMARK  128  A    between atoms: _354  and  _355
REMARK  129  A    between atoms: _354  and  _357
REMARK  130  A    between atoms: _357  and  _358
REMARK  131  A    between atoms: _364  and  _365
REMARK  132  A    between atoms: _371  and  _372
REMARK  133  A    between atoms: _377  and  _379
REMARK  134  A    between atoms: _379  and  _380
REMARK  135  A    between atoms: _379  and  _382
REMARK  136  A    between atoms: _382  and  _383
REMARK  137  A    between atoms: _386  and  _388
REMARK  138  A    between atoms: _388  and  _389
REMARK  139  A    between atoms: _388  and  _391
REMARK  140  A    between atoms: _391  and  _392
REMARK  141  A    between atoms: _397  and  _398
REMARK  142  A    between atoms: _400  and  _402
REMARK  143  A    between atoms: _402  and  _403
REMARK  144  A    between atoms: _402  and  _405
REMARK  145  A    between atoms: _405  and  _406
REMARK  146  A    between atoms: _408  and  _410
REMARK  147  A    between atoms: _410  and  _411
REMARK  148  A    between atoms: _410  and  _413
REMARK  149  A    between atoms: _416  and  _418
REMARK  150  A    between atoms: _418  and  _419
REMARK  151  A    between atoms: _418  and  _421
REMARK  152  A    between atoms: _421  and  _422
REMARK  153  A    between atoms: _432  and  _434
REMARK  154  A    between atoms: _434  and  _435
REMARK  155  A    between atoms: _434  and  _437
REMARK  156  A    between atoms: _437  and  _438
REMARK  157  A    between atoms: _443  and  _445
REMARK  158  A    between atoms: _445  and  _446
REMARK  159  A    between atoms: _445  and  _448
REMARK  160  A    between atoms: _448  and  _449
REMARK  161  A    between atoms: _449  and  _450
REMARK  162  A    between atoms: _450  and  _451
REMARK                            x       y       z     vdW  Elec       q    Type
REMARK                         _______ _______ _______ _____ _____    ______ ____
ROOT
ATOM      1  CB  ASN A   1      23.426  40.304  16.035  0.00  0.00    +0.110 C 
ENDROOT
BRANCH   1   2
ATOM      2  CG  ASN A   1      23.909  39.134  16.746  0.00  0.00    +0.221 C 
ATOM      3  OD1 ASN A   1      24.259  39.221  17.934  0.00  0.00    -0.275 OA
ATOM      4  ND2 ASN A   1      24.077  37.997  16.056  0.00  0.00    -0.329 N 
ATOM      5 HD21 ASN A   1      24.507  37.169  16.515  0.00  0.00    +0.145 HD
ATOM      6 HD22 ASN A   1      23.778  37.943  15.062  0.00  0.00    +0.145 HD
ENDBRANCH   1   2
BRANCH   1   7
ATOM      7  CA  ASN A   1      23.749  41.663  16.721  0.00  0.00    +0.142 C 
BRANCH   7   8
ATOM      8  N   ASN A   1      25.181  41.783  16.960  0.00  0.00    -0.239 NA
ATOM      9  H   ASN A   1      25.559  41.629  17.916  0.00  0.00    +0.142 HD
ENDBRANCH   7   8
BRANCH   7  10
ATOM     10  C   ASN A   1      22.957  41.835  17.996  0.00  0.00    +0.225 C 
ATOM     11  O   ASN A   1      21.932  41.225  18.161  0.00  0.00    -0.287 OA
ENDBRANCH   7  10
ENDBRANCH   1   7
TORSDOF 4
REMARK  Name = ../refined-set-2016/4wr7/4wr7_pocket.pdb
REMARK  162 active torsions:
REMARK  status: ('A' for Active; 'I' for Inactive)
REMARK    1  A    between atoms: _1  and  _3
REMARK    2  A    between atoms: _3  and  _4
REMARK    3  A    between atoms: _3  and  _6
REMARK    4  A    between atoms: _6  and  _7
REMARK    5  A    between atoms: _17  and  _19
REMARK    6  A    between atoms: _19  and  _20
REMARK    7  A    between atoms: _19  and  _22
REMARK    8  A    between atoms: _22  and  _23
REMARK    9  A    between atoms: _28  and  _29
REMARK   10  A    between atoms: _31  and  _33
REMARK   11  A    between atoms: _33  and  _34
REMARK   12  A    between atoms: _33  and  _36
REMARK   13  A    between atoms: _36  and  _37
REMARK   14  A    between atoms: _47  and  _49
REMARK   15  A    between atoms: _49  and  _50
REMARK   16  A    between atoms: _49  and  _52
REMARK   17  A    between atoms: _52  and  _53
REMARK   18  A    between atoms: _56  and  _57
REMARK   19  A    between atoms: _62  and  _64
REMARK   20  A    between atoms: _64  and  _65
REMARK   21  A    between atoms: _64  and  _67
REMARK   22  A    between atoms: _67  and  _68
REMARK   23  A    between atoms: _73  and  _75
REMARK   24  A    between atoms: _75  and  _76
REMARK   25  A    between atoms: _75  and  _78
REMARK   26  A    between atoms: _78  and  _79
REMARK   27  A    between atoms: _81  and  _83
REMARK   28  A    between atoms: _83  and  _84
REMARK   29  A    between atoms: _83  and  _86
REMARK   30  A    between atoms: _86  and  _87
REMARK   31  A    between atoms: _92  and  _94
REMARK   32  A    between atoms: _94  and  _95
REMARK   33  A    between atoms: _94  and  _97
REMARK   34  A    between atoms: _97  and  _98
REMARK   35  A    between atoms: _103  and  _105
REMARK   36  A    between atoms: _105  and  _106
REMARK   37  A    between atoms: _105  and  _108
REMARK   38  A    between atoms: _108  and  _109
REMARK   39  A    between atoms: _115  and  _117
REMARK   40  A    between atoms: _117  and  _118
REMARK   41  A    between atoms: _117  and  _120
REMARK   42  A    between atoms: _120  and  _121
REMARK   43  A    between atoms: _121  and  _122
REMARK   44  A    between atoms: _127  and  _129
REMARK   45  A    between atoms: _129  and  _130
REMARK   46  A    between atoms: _129  and  _132
REMARK   47  A    between atoms: _132  and  _133
REMARK   48  A    between atoms: _139  and  _141
REMARK   49  A    between atoms: _152  and  _155
REMARK   50  A    between atoms: _155  and  _156
REMARK   51  A    between atoms: _164  and  _165
REMARK   52  A    between atoms: _173  and  _175
REMARK   53  A    between atoms: _175  and  _176
REMARK   54  A    between atoms: _175  and  _178
REMARK   55  A    between atoms: _178  and  _179
REMARK   56  A    between atoms: _179  and  _180
REMARK   57  A    between atoms: _183  and  _185
REMARK   58  A    between atoms: _185  and  _186
REMARK   59  A    between atoms: _185  and  _188
REMARK   60  A    between atoms: _188  and  _189
REMARK   61  A    between atoms: _194  and  _196
REMARK   62  A    between atoms: _196  and  _197
REMARK   63  A    between atoms: _196  and  _199
REMARK   64  A    between atoms: _199  and  _200
REMARK   65  A    between atoms: _200  and  _201
REMARK   66  A    between atoms: _204  and  _206
REMARK   67  A    between atoms: _206  and  _207
REMARK   68  A    between atoms: _206  and  _209
REMARK   69  A    between atoms: _209  and  _210
REMARK   70  A    between atoms: _213  and  _215
REMARK   71  A    between atoms: _215  and  _216
REMARK   72  A    between atoms: _215  and  _218
REMARK   73  A    between atoms: _218  and  _219
REMARK   74  A    between atoms: _220  and  ZN_460
REMARK   75  A    between atoms: _224  and  _226
REMARK   76  A    between atoms: _226  and  _227
REMARK   77  A    between atoms: _226  and  _229
REMARK   78  A    between atoms: _232  and  _234
REMARK   79  A    between atoms: _234  and  _235
REMARK   80  A    between atoms: _238  and  _240
REMARK   81  A    between atoms: _240  and  _241
REMARK   82  A    between atoms: _240  and  _243
REMARK   83  A    between atoms: _243  and  _244
REMARK   84  A    between atoms: _249  and  _251
REMARK   85  A    between atoms: _251  and  _252
REMARK   86  A    between atoms: _251  and  _254
REMARK   87  A    between atoms: _254  and  _255
REMARK   88  A    between atoms: _258  and  _260
REMARK   89  A    between atoms: _260  and  _261
REMARK   90  A    between atoms: _264  and  _266
REMARK   91  A    between atoms: _266  and  _267
REMARK   92  A    between atoms: _270  and  _272
REMARK   93  A    between atoms: _272  and  _273
REMARK   94  A    between atoms: _276  and  _278
REMARK   95  A    between atoms: _278  and  _279
REMARK   96  A    between atoms: _278  and  _281
REMARK   97  A    between atoms: _281  and  _282
REMARK   98  A    between atoms: _284  and  _286
REMARK   99  A    between atoms: _286  and  _287
REMARK  100  A    between atoms: _286  and  _289
REMARK  101  A    between atoms: _289  and  _290
REMARK  102  A    between atoms: _293  and  _295
REMARK  103  A    between atoms: _295  and  _296
REMARK  104  A    between atoms: _299  and  _301
REMARK  105  A    between atoms: _301  and  _302
REMARK  106  A    between atoms: _301  and  _304
REMARK  107  A    between atoms: _307  and  _309
REMARK  108  A    between atoms: _309  and  _310
REMARK  109  A    between atoms: _309  and  _312
REMARK  110  A    between atoms: _312  and  _313
REMARK  111  A    between atoms: _316  and  _318
REMARK  112  A    between atoms: _318  and  _319
REMARK  113  A    between atoms: _321  and  _323
REMARK  114  A    between atoms: _323  and  _324
REMARK  115  A    between atoms: _326  and  _328
REMARK  116  A    between atoms: _328  and  _329
REMARK  117  A    between atoms: _328  and  _331
REMARK  118  A    between atoms: _331  and  _332
REMARK  119  A    between atoms: _334  and  _336
REMARK  120  A    between atoms: _336  and  _337
REMARK  121  A    between atoms: _336  and  _339
REMARK  122  A    between atoms: _339  and  _340
REMARK  123  A    between atoms: _343  and  _345
REMARK  124  A    between atoms: _345  and  _346
REMARK  125  A    between atoms: _345  and  _348
REMARK  126  A    between atoms: _348  and  _349
REMARK  127  A    between atoms: _352  and  _354
REMARK  128  A    between atoms: _354  and  _355
REMARK  129  A    between atoms: _354  and  _357
REMARK  130  A    between atoms: _357  and  _358
REMARK  131  A    between atoms: _364  and  _365
REMARK  132  A    between atoms: _371  and  _372
REMARK  133  A    between atoms: _377  and  _379
REMARK  134  A    between atoms: _379  and  _380
REMARK  135  A    between atoms: _379  and  _382
REMARK  136  A    between atoms: _382  and  _383
REMARK  137  A    between atoms: _386  and  _388
REMARK  138  A    between atoms: _388  and  _389
REMARK  139  A    between atoms: _388  and  _391
REMARK  140  A    between atoms: _391  and  _392
REMARK  141  A    between atoms: _397  and  _398
REMARK  142  A    between atoms: _400  and  _402
REMARK  143  A    between atoms: _402  and  _403
REMARK  144  A    between atoms: _402  and  _405
REMARK  145  A    between atoms: _405  and  _406
REMARK  146  A    between atoms: _408  and  _410
REMARK  147  A    between atoms: _410  and  _411
REMARK  148  A    between atoms: _410  and  _413
REMARK  149  A    between atoms: _416  and  _418
REMARK  150  A    between atoms: _418  and  _419
REMARK  151  A    between atoms: _418  and  _421
REMARK  152  A    between atoms: _421  and  _422
REMARK  153  A    between atoms: _432  and  _434
REMARK  154  A    between atoms: _434  and  _435
REMARK  155  A    between atoms: _434  and  _437
REMARK  156  A    between atoms: _437  and  _438
REMARK  157  A    between atoms: _443  and  _445
REMARK  158  A    between atoms: _445  and  _446
REMARK  159  A    between atoms: _445  and  _448
REMARK  160  A    between atoms: _448  and  _449
REMARK  161  A    between atoms: _449  and  _450
REMARK  162  A    between atoms: _450  and  _451
REMARK                            x       y       z     vdW  Elec       q    Type
REMARK                         _______ _______ _______ _____ _____    ______ ____
ROOT
ATOM      1  NE  ARG A   1      15.402  47.222  20.383  0.00  0.00    +0.330 N 
ATOM      2  CZ  ARG A   1      14.077  47.326  20.610  0.00  0.00    +0.000 C 
ATOM      3  NH2 ARG A   1      13.424  46.325  21.170  0.00  0.00    +0.330 N 
ATOM      4 HH21 ARG A   1      13.931  45.457  21.436  0.00  0.00    +0.000 HD
ATOM      5 HH22 ARG A   1      12.402  46.404  21.346  0.00  0.00    +0.000 HD
ATOM      6  NH1 ARG A   1      13.435  48.452  20.192  0.00  0.00    +0.330 N 
ATOM      7 HH11 ARG A   1      12.413  48.559  20.354  0.00  0.00    +0.000 HD
ATOM      8 HH12 ARG A   1      13.966  49.205  19.711  0.00  0.00    +0.000 HD
ATOM      9  HE  ARG A   1      15.896  48.007  19.913  0.00  0.00    +0.000 HD
ENDROOT
BRANCH   1  10
ATOM     10  CD  ARG A   1      16.173  46.027  20.782  0.00  0.00    +0.000 C 
BRANCH  10  11
ATOM     11  CG  ARG A   1      17.684  46.349  20.685  0.00  0.00    +0.000 C 
BRANCH  11  12
ATOM     12  CB  ARG A   1      18.592  45.109  20.592  0.00  0.00    +0.000 C 
BRANCH  12  13
ATOM     13  CA  ARG A   1      20.136  45.433  20.698  0.00  0.00    +0.000 C 
BRANCH  13  14
ATOM     14  N   ARG A   1      20.854  44.198  20.600  0.00  0.00    +0.000 NA
ATOM     15  H   ARG A   1      20.409  43.302  20.883  0.00  0.00    +0.000 HD
ENDBRANCH  13  14
BRANCH  13  16
ATOM     16  C   ARG A   1      20.411  46.164  22.053  0.00  0.00    +0.000 C 
ATOM     17  O   ARG A   1      20.511  45.475  23.092  0.00  0.00    +0.000 OA
ENDBRANCH  13  16
ENDBRANCH  12  13
ENDBRANCH  11  12
ENDBRANCH  10  11
ENDBRANCH   1  10
TORSDOF 6
REMARK  Name = ../refined-set-2016/4wr7/4wr7_pocket.pdb
REMARK  162 active torsions:
REMARK  status: ('A' for Active; 'I' for Inactive)
REMARK    1  A    between atoms: _1  and  _3
REMARK    2  A    between atoms: _3  and  _4
REMARK    3  A    between atoms: _3  and  _6
REMARK    4  A    between atoms: _6  and  _7
REMARK    5  A    between atoms: _17  and  _19
REMARK    6  A    between atoms: _19  and  _20
REMARK    7  A    between atoms: _19  and  _22
REMARK    8  A    between atoms: _22  and  _23
REMARK    9  A    between atoms: _28  and  _29
REMARK   10  A    between atoms: _31  and  _33
REMARK   11  A    between atoms: _33  and  _34
REMARK   12  A    between atoms: _33  and  _36
REMARK   13  A    between atoms: _36  and  _37
REMARK   14  A    between atoms: _47  and  _49
REMARK   15  A    between atoms: _49  and  _50
REMARK   16  A    between atoms: _49  and  _52
REMARK   17  A    between atoms: _52  and  _53
REMARK   18  A    between atoms: _56  and  _57
REMARK   19  A    between atoms: _62  and  _64
REMARK   20  A    between atoms: _64  and  _65
REMARK   21  A    between atoms: _64  and  _67
REMARK   22  A    between atoms: _67  and  _68
REMARK   23  A    between atoms: _73  and  _75
REMARK   24  A    between atoms: _75  and  _76
REMARK   25  A    between atoms: _75  and  _78
REMARK   26  A    between atoms: _78  and  _79
REMARK   27  A    between atoms: _81  and  _83
REMARK   28  A    between atoms: _83  and  _84
REMARK   29  A    between atoms: _83  and  _86
REMARK   30  A    between atoms: _86  and  _87
REMARK   31  A    between atoms: _92  and  _94
REMARK   32  A    between atoms: _94  and  _95
REMARK   33  A    between atoms: _94  and  _97
REMARK   34  A    between atoms: _97  and  _98
REMARK   35  A    between atoms: _103  and  _105
REMARK   36  A    between atoms: _105  and  _106
REMARK   37  A    between atoms: _105  and  _108
REMARK   38  A    between atoms: _108  and  _109
REMARK   39  A    between atoms: _115  and  _117
REMARK   40  A    between atoms: _117  and  _118
REMARK   41  A    between atoms: _117  and  _120
REMARK   42  A    between atoms: _120  and  _121
REMARK   43  A    between atoms: _121  and  _122
REMARK   44  A    between atoms: _127  and  _129
REMARK   45  A    between atoms: _129  and  _130
REMARK   46  A    between atoms: _129  and  _132
REMARK   47  A    between atoms: _132  and  _133
REMARK   48  A    between atoms: _139  and  _141
REMARK   49  A    between atoms: _152  and  _155
REMARK   50  A    between atoms: _155  and  _156
REMARK   51  A    between atoms: _164  and  _165
REMARK   52  A    between atoms: _173  and  _175
REMARK   53  A    between atoms: _175  and  _176
REMARK   54  A    between atoms: _175  and  _178
REMARK   55  A    between atoms: _178  and  _179
REMARK   56  A    between atoms: _179  and  _180
REMARK   57  A    between atoms: _183  and  _185
REMARK   58  A    between atoms: _185  and  _186
REMARK   59  A    between atoms: _185  and  _188
REMARK   60  A    between atoms: _188  and  _189
REMARK   61  A    between atoms: _194  and  _196
REMARK   62  A    between atoms: _196  and  _197
REMARK   63  A    between atoms: _196  and  _199
REMARK   64  A    between atoms: _199  and  _200
REMARK   65  A    between atoms: _200  and  _201
REMARK   66  A    between atoms: _204  and  _206
REMARK   67  A    between atoms: _206  and  _207
REMARK   68  A    between atoms: _206  and  _209
REMARK   69  A    between atoms: _209  and  _210
REMARK   70  A    between atoms: _213  and  _215
REMARK   71  A    between atoms: _215  and  _216
REMARK   72  A    between atoms: _215  and  _218
REMARK   73  A    between atoms: _218  and  _219
REMARK   74  A    between atoms: _220  and  ZN_460
REMARK   75  A    between atoms: _224  and  _226
REMARK   76  A    between atoms: _226  and  _227
REMARK   77  A    between atoms: _226  and  _229
REMARK   78  A    between atoms: _232  and  _234
REMARK   79  A    between atoms: _234  and  _235
REMARK   80  A    between atoms: _238  and  _240
REMARK   81  A    between atoms: _240  and  _241
REMARK   82  A    between atoms: _240  and  _243
REMARK   83  A    between atoms: _243  and  _244
REMARK   84  A    between atoms: _249  and  _251
REMARK   85  A    between atoms: _251  and  _252
REMARK   86  A    between atoms: _251  and  _254
REMARK   87  A    between atoms: _254  and  _255
REMARK   88  A    between atoms: _258  and  _260
REMARK   89  A    between atoms: _260  and  _261
REMARK   90  A    between atoms: _264  and  _266
REMARK   91  A    between atoms: _266  and  _267
REMARK   92  A    between atoms: _270  and  _272
REMARK   93  A    between atoms: _272  and  _273
REMARK   94  A    between atoms: _276  and  _278
REMARK   95  A    between atoms: _278  and  _279
REMARK   96  A    between atoms: _278  and  _281
REMARK   97  A    between atoms: _281  and  _282
REMARK   98  A    between atoms: _284  and  _286
REMARK   99  A    between atoms: _286  and  _287
REMARK  100  A    between atoms: _286  and  _289
REMARK  101  A    between atoms: _289  and  _290
REMARK  102  A    between atoms: _293  and  _295
REMARK  103  A    between atoms: _295  and  _296
REMARK  104  A    between atoms: _299  and  _301
REMARK  105  A    between atoms: _301  and  _302
REMARK  106  A    between atoms: _301  and  _304
REMARK  107  A    between atoms: _307  and  _309
REMARK  108  A    between atoms: _309  and  _310
REMARK  109  A    between atoms: _309  and  _312
REMARK  110  A    between atoms: _312  and  _313
REMARK  111  A    between atoms: _316  and  _318
REMARK  112  A    between atoms: _318  and  _319
REMARK  113  A    between atoms: _321  and  _323
REMARK  114  A    between atoms: _323  and  _324
REMARK  115  A    between atoms: _326  and  _328
REMARK  116  A    between atoms: _328  and  _329
REMARK  117  A    between atoms: _328  and  _331
REMARK  118  A    between atoms: _331  and  _332
REMARK  119  A    between atoms: _334  and  _336
REMARK  120  A    between atoms: _336  and  _337
REMARK  121  A    between atoms: _336  and  _339
REMARK  122  A    between atoms: _339  and  _340
REMARK  123  A    between atoms: _343  and  _345
REMARK  124  A    between atoms: _345  and  _346
REMARK  125  A    between atoms: _345  and  _348
REMARK  126  A    between atoms: _348  and  _349
REMARK  127  A    between atoms: _352  and  _354
REMARK  128  A    between atoms: _354  and  _355
REMARK  129  A    between atoms: _354  and  _357
REMARK  130  A    between atoms: _357  and  _358
REMARK  131  A    between atoms: _364  and  _365
REMARK  132  A    between atoms: _371  and  _372
REMARK  133  A    between atoms: _377  and  _379
REMARK  134  A    between atoms: _379  and  _380
REMARK  135  A    between atoms: _379  and  _382
REMARK  136  A    between atoms: _382  and  _383
REMARK  137  A    between atoms: _386  and  _388
REMARK  138  A    between atoms: _388  and  _389
REMARK  139  A    between atoms: _388  and  _391
REMARK  140  A    between atoms: _391  and  _392
REMARK  141  A    between atoms: _397  and  _398
REMARK  142  A    between atoms: _400  and  _402
REMARK  143  A    between atoms: _402  and  _403
REMARK  144  A    between atoms: _402  and  _405
REMARK  145  A    between atoms: _405  and  _406
REMARK  146  A    between atoms: _408  and  _410
REMARK  147  A    between atoms: _410  and  _411
REMARK  148  A    between atoms: _410  and  _413
REMARK  149  A    between atoms: _416  and  _418
REMARK  150  A    between atoms: _418  and  _419
REMARK  151  A    between atoms: _418  and  _421
REMARK  152  A    between atoms: _421  and  _422
REMARK  153  A    between atoms: _432  and  _434
REMARK  154  A    between atoms: _434  and  _435
REMARK  155  A    between atoms: _434  and  _437
REMARK  156  A    between atoms: _437  and  _438
REMARK  157  A    between atoms: _443  and  _445
REMARK  158  A    between atoms: _445  and  _446
REMARK  159  A    between atoms: _445  and  _448
REMARK  160  A    between atoms: _448  and  _449
REMARK  161  A    between atoms: _449  and  _450
REMARK  162  A    between atoms: _450  and  _451
REMARK                            x       y       z     vdW  Elec       q    Type
REMARK                         _______ _______ _______ _____ _____    ______ ____
ROOT
ATOM      1  O   HOH     1       1.518  35.868  14.894  0.00  0.00    +0.000 OA
ENDROOT
TORSDOF 0
REMARK  Name = ../refined-set-2016/4wr7/4wr7_pocket.pdb
REMARK  162 active torsions:
REMARK  status: ('A' for Active; 'I' for Inactive)
REMARK    1  A    between atoms: _1  and  _3
REMARK    2  A    between atoms: _3  and  _4
REMARK    3  A    between atoms: _3  and  _6
REMARK    4  A    between atoms: _6  and  _7
REMARK    5  A    between atoms: _17  and  _19
REMARK    6  A    between atoms: _19  and  _20
REMARK    7  A    between atoms: _19  and  _22
REMARK    8  A    between atoms: _22  and  _23
REMARK    9  A    between atoms: _28  and  _29
REMARK   10  A    between atoms: _31  and  _33
REMARK   11  A    between atoms: _33  and  _34
REMARK   12  A    between atoms: _33  and  _36
REMARK   13  A    between atoms: _36  and  _37
REMARK   14  A    between atoms: _47  and  _49
REMARK   15  A    between atoms: _49  and  _50
REMARK   16  A    between atoms: _49  and  _52
REMARK   17  A    between atoms: _52  and  _53
REMARK   18  A    between atoms: _56  and  _57
REMARK   19  A    between atoms: _62  and  _64
REMARK   20  A    between atoms: _64  and  _65
REMARK   21  A    between atoms: _64  and  _67
REMARK   22  A    between atoms: _67  and  _68
REMARK   23  A    between atoms: _73  and  _75
REMARK   24  A    between atoms: _75  and  _76
REMARK   25  A    between atoms: _75  and  _78
REMARK   26  A    between atoms: _78  and  _79
REMARK   27  A    between atoms: _81  and  _83
REMARK   28  A    between atoms: _83  and  _84
REMARK   29  A    between atoms: _83  and  _86
REMARK   30  A    between atoms: _86  and  _87
REMARK   31  A    between atoms: _92  and  _94
REMARK   32  A    between atoms: _94  and  _95
REMARK   33  A    between atoms: _94  and  _97
REMARK   34  A    between atoms: _97  and  _98
REMARK   35  A    between atoms: _103  and  _105
REMARK   36  A    between atoms: _105  and  _106
REMARK   37  A    between atoms: _105  and  _108
REMARK   38  A    between atoms: _108  and  _109
REMARK   39  A    between atoms: _115  and  _117
REMARK   40  A    between atoms: _117  and  _118
REMARK   41  A    between atoms: _117  and  _120
REMARK   42  A    between atoms: _120  and  _121
REMARK   43  A    between atoms: _121  and  _122
REMARK   44  A    between atoms: _127  and  _129
REMARK   45  A    between atoms: _129  and  _130
REMARK   46  A    between atoms: _129  and  _132
REMARK   47  A    between atoms: _132  and  _133
REMARK   48  A    between atoms: _139  and  _141
REMARK   49  A    between atoms: _152  and  _155
REMARK   50  A    between atoms: _155  and  _156
REMARK   51  A    between atoms: _164  and  _165
REMARK   52  A    between atoms: _173  and  _175
REMARK   53  A    between atoms: _175  and  _176
REMARK   54  A    between atoms: _175  and  _178
REMARK   55  A    between atoms: _178  and  _179
REMARK   56  A    between atoms: _179  and  _180
REMARK   57  A    between atoms: _183  and  _185
REMARK   58  A    between atoms: _185  and  _186
REMARK   59  A    between atoms: _185  and  _188
REMARK   60  A    between atoms: _188  and  _189
REMARK   61  A    between atoms: _194  and  _196
REMARK   62  A    between atoms: _196  and  _197
REMARK   63  A    between atoms: _196  and  _199
REMARK   64  A    between atoms: _199  and  _200
REMARK   65  A    between atoms: _200  and  _201
REMARK   66  A    between atoms: _204  and  _206
REMARK   67  A    between atoms: _206  and  _207
REMARK   68  A    between atoms: _206  and  _209
REMARK   69  A    between atoms: _209  and  _210
REMARK   70  A    between atoms: _213  and  _215
REMARK   71  A    between atoms: _215  and  _216
REMARK   72  A    between atoms: _215  and  _218
REMARK   73  A    between atoms: _218  and  _219
REMARK   74  A    between atoms: _220  and  ZN_460
REMARK   75  A    between atoms: _224  and  _226
REMARK   76  A    between atoms: _226  and  _227
REMARK   77  A    between atoms: _226  and  _229
REMARK   78  A    between atoms: _232  and  _234
REMARK   79  A    between atoms: _234  and  _235
REMARK   80  A    between atoms: _238  and  _240
REMARK   81  A    between atoms: _240  and  _241
REMARK   82  A    between atoms: _240  and  _243
REMARK   83  A    between atoms: _243  and  _244
REMARK   84  A    between atoms: _249  and  _251
REMARK   85  A    between atoms: _251  and  _252
REMARK   86  A    between atoms: _251  and  _254
REMARK   87  A    between atoms: _254  and  _255
REMARK   88  A    between atoms: _258  and  _260
REMARK   89  A    between atoms: _260  and  _261
REMARK   90  A    between atoms: _264  and  _266
REMARK   91  A    between atoms: _266  and  _267
REMARK   92  A    between atoms: _270  and  _272
REMARK   93  A    between atoms: _272  and  _273
REMARK   94  A    between atoms: _276  and  _278
REMARK   95  A    between atoms: _278  and  _279
REMARK   96  A    between atoms: _278  and  _281
REMARK   97  A    between atoms: _281  and  _282
REMARK   98  A    between atoms: _284  and  _286
REMARK   99  A    between atoms: _286  and  _287
REMARK  100  A    between atoms: _286  and  _289
REMARK  101  A    between atoms: _289  and  _290
REMARK  102  A    between atoms: _293  and  _295
REMARK  103  A    between atoms: _295  and  _296
REMARK  104  A    between atoms: _299  and  _301
REMARK  105  A    between atoms: _301  and  _302
REMARK  106  A    between atoms: _301  and  _304
REMARK  107  A    between atoms: _307  and  _309
REMARK  108  A    between atoms: _309  and  _310
REMARK  109  A    between atoms: _309  and  _312
REMARK  110  A    between atoms: _312  and  _313
REMARK  111  A    between atoms: _316  and  _318
REMARK  112  A    between atoms: _318  and  _319
REMARK  113  A    between atoms: _321  and  _323
REMARK  114  A    between atoms: _323  and  _324
REMARK  115  A    between atoms: _326  and  _328
REMARK  116  A    between atoms: _328  and  _329
REMARK  117  A    between atoms: _328  and  _331
REMARK  118  A    between atoms: _331  and  _332
REMARK  119  A    between atoms: _334  and  _336
REMARK  120  A    between atoms: _336  and  _337
REMARK  121  A    between atoms: _336  and  _339
REMARK  122  A    between atoms: _339  and  _340
REMARK  123  A    between atoms: _343  and  _345
REMARK  124  A    between atoms: _345  and  _346
REMARK  125  A    between atoms: _345  and  _348
REMARK  126  A    between atoms: _348  and  _349
REMARK  127  A    between atoms: _352  and  _354
REMARK  128  A    between atoms: _354  and  _355
REMARK  129  A    between atoms: _354  and  _357
REMARK  130  A    between atoms: _357  and  _358
REMARK  131  A    between atoms: _364  and  _365
REMARK  132  A    between atoms: _371  and  _372
REMARK  133  A    between atoms: _377  and  _379
REMARK  134  A    between atoms: _379  and  _380
REMARK  135  A    between atoms: _379  and  _382
REMARK  136  A    between atoms: _382  and  _383
REMARK  137  A    between atoms: _386  and  _388
REMARK  138  A    between atoms: _388  and  _389
REMARK  139  A    between atoms: _388  and  _391
REMARK  140  A    between atoms: _391  and  _392
REMARK  141  A    between atoms: _397  and  _398
REMARK  142  A    between atoms: _400  and  _402
REMARK  143  A    between atoms: _402  and  _403
REMARK  144  A    between atoms: _402  and  _405
REMARK  145  A    between atoms: _405  and  _406
REMARK  146  A    between atoms: _408  and  _410
REMARK  147  A    between atoms: _410  and  _411
REMARK  148  A    between atoms: _410  and  _413
REMARK  149  A    between atoms: _416  and  _418
REMARK  150  A    between atoms: _418  and  _419
REMARK  151  A    between atoms: _418  and  _421
REMARK  152  A    between atoms: _421  and  _422
REMARK  153  A    between atoms: _432  and  _434
REMARK  154  A    between atoms: _434  and  _435
REMARK  155  A    between atoms: _434  and  _437
REMARK  156  A    between atoms: _437  and  _438
REMARK  157  A    between atoms: _443  and  _445
REMARK  158  A    between atoms: _445  and  _446
REMARK  159  A    between atoms: _445  and  _448
REMARK  160  A    between atoms: _448  and  _449
REMARK  161  A    between atoms: _449  and  _450
REMARK  162  A    between atoms: _450  and  _451
REMARK                            x       y       z     vdW  Elec       q    Type
REMARK                         _______ _______ _______ _____ _____    ______ ____
ROOT
ATOM      1  O   HOH     1      12.827  38.418  11.928  0.00  0.00    +0.000 OA
ENDROOT
TORSDOF 0
REMARK  Name = ../refined-set-2016/4wr7/4wr7_pocket.pdb
REMARK  162 active torsions:
REMARK  status: ('A' for Active; 'I' for Inactive)
REMARK    1  A    between atoms: _1  and  _3
REMARK    2  A    between atoms: _3  and  _4
REMARK    3  A    between atoms: _3  and  _6
REMARK    4  A    between atoms: _6  and  _7
REMARK    5  A    between atoms: _17  and  _19
REMARK    6  A    between atoms: _19  and  _20
REMARK    7  A    between atoms: _19  and  _22
REMARK    8  A    between atoms: _22  and  _23
REMARK    9  A    between atoms: _28  and  _29
REMARK   10  A    between atoms: _31  and  _33
REMARK   11  A    between atoms: _33  and  _34
REMARK   12  A    between atoms: _33  and  _36
REMARK   13  A    between atoms: _36  and  _37
REMARK   14  A    between atoms: _47  and  _49
REMARK   15  A    between atoms: _49  and  _50
REMARK   16  A    between atoms: _49  and  _52
REMARK   17  A    between atoms: _52  and  _53
REMARK   18  A    between atoms: _56  and  _57
REMARK   19  A    between atoms: _62  and  _64
REMARK   20  A    between atoms: _64  and  _65
REMARK   21  A    between atoms: _64  and  _67
REMARK   22  A    between atoms: _67  and  _68
REMARK   23  A    between atoms: _73  and  _75
REMARK   24  A    between atoms: _75  and  _76
REMARK   25  A    between atoms: _75  and  _78
REMARK   26  A    between atoms: _78  and  _79
REMARK   27  A    between atoms: _81  and  _83
REMARK   28  A    between atoms: _83  and  _84
REMARK   29  A    between atoms: _83  and  _86
REMARK   30  A    between atoms: _86  and  _87
REMARK   31  A    between atoms: _92  and  _94
REMARK   32  A    between atoms: _94  and  _95
REMARK   33  A    between atoms: _94  and  _97
REMARK   34  A    between atoms: _97  and  _98
REMARK   35  A    between atoms: _103  and  _105
REMARK   36  A    between atoms: _105  and  _106
REMARK   37  A    between atoms: _105  and  _108
REMARK   38  A    between atoms: _108  and  _109
REMARK   39  A    between atoms: _115  and  _117
REMARK   40  A    between atoms: _117  and  _118
REMARK   41  A    between atoms: _117  and  _120
REMARK   42  A    between atoms: _120  and  _121
REMARK   43  A    between atoms: _121  and  _122
REMARK   44  A    between atoms: _127  and  _129
REMARK   45  A    between atoms: _129  and  _130
REMARK   46  A    between atoms: _129  and  _132
REMARK   47  A    between atoms: _132  and  _133
REMARK   48  A    between atoms: _139  and  _141
REMARK   49  A    between atoms: _152  and  _155
REMARK   50  A    between atoms: _155  and  _156
REMARK   51  A    between atoms: _164  and  _165
REMARK   52  A    between atoms: _173  and  _175
REMARK   53  A    between atoms: _175  and  _176
REMARK   54  A    between atoms: _175  and  _178
REMARK   55  A    between atoms: _178  and  _179
REMARK   56  A    between atoms: _179  and  _180
REMARK   57  A    between atoms: _183  and  _185
REMARK   58  A    between atoms: _185  and  _186
REMARK   59  A    between atoms: _185  and  _188
REMARK   60  A    between atoms: _188  and  _189
REMARK   61  A    between atoms: _194  and  _196
REMARK   62  A    between atoms: _196  and  _197
REMARK   63  A    between atoms: _196  and  _199
REMARK   64  A    between atoms: _199  and  _200
REMARK   65  A    between atoms: _200  and  _201
REMARK   66  A    between atoms: _204  and  _206
REMARK   67  A    between atoms: _206  and  _207
REMARK   68  A    between atoms: _206  and  _209
REMARK   69  A    between atoms: _209  and  _210
REMARK   70  A    between atoms: _213  and  _215
REMARK   71  A    between atoms: _215  and  _216
REMARK   72  A    between atoms: _215  and  _218
REMARK   73  A    between atoms: _218  and  _219
REMARK   74  A    between atoms: _220  and  ZN_460
REMARK   75  A    between atoms: _224  and  _226
REMARK   76  A    between atoms: _226  and  _227
REMARK   77  A    between atoms: _226  and  _229
REMARK   78  A    between atoms: _232  and  _234
REMARK   79  A    between atoms: _234  and  _235
REMARK   80  A    between atoms: _238  and  _240
REMARK   81  A    between atoms: _240  and  _241
REMARK   82  A    between atoms: _240  and  _243
REMARK   83  A    between atoms: _243  and  _244
REMARK   84  A    between atoms: _249  and  _251
REMARK   85  A    between atoms: _251  and  _252
REMARK   86  A    between atoms: _251  and  _254
REMARK   87  A    between atoms: _254  and  _255
REMARK   88  A    between atoms: _258  and  _260
REMARK   89  A    between atoms: _260  and  _261
REMARK   90  A    between atoms: _264  and  _266
REMARK   91  A    between atoms: _266  and  _267
REMARK   92  A    between atoms: _270  and  _272
REMARK   93  A    between atoms: _272  and  _273
REMARK   94  A    between atoms: _276  and  _278
REMARK   95  A    between atoms: _278  and  _279
REMARK   96  A    between atoms: _278  and  _281
REMARK   97  A    between atoms: _281  and  _282
REMARK   98  A    between atoms: _284  and  _286
REMARK   99  A    between atoms: _286  and  _287
REMARK  100  A    between atoms: _286  and  _289
REMARK  101  A    between atoms: _289  and  _290
REMARK  102  A    between atoms: _293  and  _295
REMARK  103  A    between atoms: _295  and  _296
REMARK  104  A    between atoms: _299  and  _301
REMARK  105  A    between atoms: _301  and  _302
REMARK  106  A    between atoms: _301  and  _304
REMARK  107  A    between atoms: _307  and  _309
REMARK  108  A    between atoms: _309  and  _310
REMARK  109  A    between atoms: _309  and  _312
REMARK  110  A    between atoms: _312  and  _313
REMARK  111  A    between atoms: _316  and  _318
REMARK  112  A    between atoms: _318  and  _319
REMARK  113  A    between atoms: _321  and  _323
REMARK  114  A    between atoms: _323  and  _324
REMARK  115  A    between atoms: _326  and  _328
REMARK  116  A    between atoms: _328  and  _329
REMARK  117  A    between atoms: _328  and  _331
REMARK  118  A    between atoms: _331  and  _332
REMARK  119  A    between atoms: _334  and  _336
REMARK  120  A    between atoms: _336  and  _337
REMARK  121  A    between atoms: _336  and  _339
REMARK  122  A    between atoms: _339  and  _340
REMARK  123  A    between atoms: _343  and  _345
REMARK  124  A    between atoms: _345  and  _346
REMARK  125  A    between atoms: _345  and  _348
REMARK  126  A    between atoms: _348  and  _349
REMARK  127  A    between atoms: _352  and  _354
REMARK  128  A    between atoms: _354  and  _355
REMARK  129  A    between atoms: _354  and  _357
REMARK  130  A    between atoms: _357  and  _358
REMARK  131  A    between atoms: _364  and  _365
REMARK  132  A    between atoms: _371  and  _372
REMARK  133  A    between atoms: _377  and  _379
REMARK  134  A    between atoms: _379  and  _380
REMARK  135  A    between atoms: _379  and  _382
REMARK  136  A    between atoms: _382  and  _383
REMARK  137  A    between atoms: _386  and  _388
REMARK  138  A    between atoms: _388  and  _389
REMARK  139  A    between atoms: _388  and  _391
REMARK  140  A    between atoms: _391  and  _392
REMARK  141  A    between atoms: _397  and  _398
REMARK  142  A    between atoms: _400  and  _402
REMARK  143  A    between atoms: _402  and  _403
REMARK  144  A    between atoms: _402  and  _405
REMARK  145  A    between atoms: _405  and  _406
REMARK  146  A    between atoms: _408  and  _410
REMARK  147  A    between atoms: _410  and  _411
REMARK  148  A    between atoms: _410  and  _413
REMARK  149  A    between atoms: _416  and  _418
REMARK  150  A    between atoms: _418  and  _419
REMARK  151  A    between atoms: _418  and  _421
REMARK  152  A    between atoms: _421  and  _422
REMARK  153  A    between atoms: _432  and  _434
REMARK  154  A    between atoms: _434  and  _435
REMARK  155  A    between atoms: _434  and  _437
REMARK  156  A    between atoms: _437  and  _438
REMARK  157  A    between atoms: _443  and  _445
REMARK  158  A    between atoms: _445  and  _446
REMARK  159  A    between atoms: _445  and  _448
REMARK  160  A    between atoms: _448  and  _449
REMARK  161  A    between atoms: _449  and  _450
REMARK  162  A    between atoms: _450  and  _451
REMARK                            x       y       z     vdW  Elec       q    Type
REMARK                         _______ _______ _______ _____ _____    ______ ____
ROOT
ATOM      1  O   HOH     1      15.167  30.377  11.539  0.00  0.00    +0.000 OA
ENDROOT
TORSDOF 0
REMARK  Name = ../refined-set-2016/4wr7/4wr7_pocket.pdb
REMARK  162 active torsions:
REMARK  status: ('A' for Active; 'I' for Inactive)
REMARK    1  A    between atoms: _1  and  _3
REMARK    2  A    between atoms: _3  and  _4
REMARK    3  A    between atoms: _3  and  _6
REMARK    4  A    between atoms: _6  and  _7
REMARK    5  A    between atoms: _17  and  _19
REMARK    6  A    between atoms: _19  and  _20
REMARK    7  A    between atoms: _19  and  _22
REMARK    8  A    between atoms: _22  and  _23
REMARK    9  A    between atoms: _28  and  _29
REMARK   10  A    between atoms: _31  and  _33
REMARK   11  A    between atoms: _33  and  _34
REMARK   12  A    between atoms: _33  and  _36
REMARK   13  A    between atoms: _36  and  _37
REMARK   14  A    between atoms: _47  and  _49
REMARK   15  A    between atoms: _49  and  _50
REMARK   16  A    between atoms: _49  and  _52
REMARK   17  A    between atoms: _52  and  _53
REMARK   18  A    between atoms: _56  and  _57
REMARK   19  A    between atoms: _62  and  _64
REMARK   20  A    between atoms: _64  and  _65
REMARK   21  A    between atoms: _64  and  _67
REMARK   22  A    between atoms: _67  and  _68
REMARK   23  A    between atoms: _73  and  _75
REMARK   24  A    between atoms: _75  and  _76
REMARK   25  A    between atoms: _75  and  _78
REMARK   26  A    between atoms: _78  and  _79
REMARK   27  A    between atoms: _81  and  _83
REMARK   28  A    between atoms: _83  and  _84
REMARK   29  A    between atoms: _83  and  _86
REMARK   30  A    between atoms: _86  and  _87
REMARK   31  A    between atoms: _92  and  _94
REMARK   32  A    between atoms: _94  and  _95
REMARK   33  A    between atoms: _94  and  _97
REMARK   34  A    between atoms: _97  and  _98
REMARK   35  A    between atoms: _103  and  _105
REMARK   36  A    between atoms: _105  and  _106
REMARK   37  A    between atoms: _105  and  _108
REMARK   38  A    between atoms: _108  and  _109
REMARK   39  A    between atoms: _115  and  _117
REMARK   40  A    between atoms: _117  and  _118
REMARK   41  A    between atoms: _117  and  _120
REMARK   42  A    between atoms: _120  and  _121
REMARK   43  A    between atoms: _121  and  _122
REMARK   44  A    between atoms: _127  and  _129
REMARK   45  A    between atoms: _129  and  _130
REMARK   46  A    between atoms: _129  and  _132
REMARK   47  A    between atoms: _132  and  _133
REMARK   48  A    between atoms: _139  and  _141
REMARK   49  A    between atoms: _152  and  _155
REMARK   50  A    between atoms: _155  and  _156
REMARK   51  A    between atoms: _164  and  _165
REMARK   52  A    between atoms: _173  and  _175
REMARK   53  A    between atoms: _175  and  _176
REMARK   54  A    between atoms: _175  and  _178
REMARK   55  A    between atoms: _178  and  _179
REMARK   56  A    between atoms: _179  and  _180
REMARK   57  A    between atoms: _183  and  _185
REMARK   58  A    between atoms: _185  and  _186
REMARK   59  A    between atoms: _185  and  _188
REMARK   60  A    between atoms: _188  and  _189
REMARK   61  A    between atoms: _194  and  _196
REMARK   62  A    between atoms: _196  and  _197
REMARK   63  A    between atoms: _196  and  _199
REMARK   64  A    between atoms: _199  and  _200
REMARK   65  A    between atoms: _200  and  _201
REMARK   66  A    between atoms: _204  and  _206
REMARK   67  A    between atoms: _206  and  _207
REMARK   68  A    between atoms: _206  and  _209
REMARK   69  A    between atoms: _209  and  _210
REMARK   70  A    between atoms: _213  and  _215
REMARK   71  A    between atoms: _215  and  _216
REMARK   72  A    between atoms: _215  and  _218
REMARK   73  A    between atoms: _218  and  _219
REMARK   74  A    between atoms: _220  and  ZN_460
REMARK   75  A    between atoms: _224  and  _226
REMARK   76  A    between atoms: _226  and  _227
REMARK   77  A    between atoms: _226  and  _229
REMARK   78  A    between atoms: _232  and  _234
REMARK   79  A    between atoms: _234  and  _235
REMARK   80  A    between atoms: _238  and  _240
REMARK   81  A    between atoms: _240  and  _241
REMARK   82  A    between atoms: _240  and  _243
REMARK   83  A    between atoms: _243  and  _244
REMARK   84  A    between atoms: _249  and  _251
REMARK   85  A    between atoms: _251  and  _252
REMARK   86  A    between atoms: _251  and  _254
REMARK   87  A    between atoms: _254  and  _255
REMARK   88  A    between atoms: _258  and  _260
REMARK   89  A    between atoms: _260  and  _261
REMARK   90  A    between atoms: _264  and  _266
REMARK   91  A    between atoms: _266  and  _267
REMARK   92  A    between atoms: _270  and  _272
REMARK   93  A    between atoms: _272  and  _273
REMARK   94  A    between atoms: _276  and  _278
REMARK   95  A    between atoms: _278  and  _279
REMARK   96  A    between atoms: _278  and  _281
REMARK   97  A    between atoms: _281  and  _282
REMARK   98  A    between atoms: _284  and  _286
REMARK   99  A    between atoms: _286  and  _287
REMARK  100  A    between atoms: _286  and  _289
REMARK  101  A    between atoms: _289  and  _290
REMARK  102  A    between atoms: _293  and  _295
REMARK  103  A    between atoms: _295  and  _296
REMARK  104  A    between atoms: _299  and  _301
REMARK  105  A    between atoms: _301  and  _302
REMARK  106  A    between atoms: _301  and  _304
REMARK  107  A    between atoms: _307  and  _309
REMARK  108  A    between atoms: _309  and  _310
REMARK  109  A    between atoms: _309  and  _312
REMARK  110  A    between atoms: _312  and  _313
REMARK  111  A    between atoms: _316  and  _318
REMARK  112  A    between atoms: _318  and  _319
REMARK  113  A    between atoms: _321  and  _323
REMARK  114  A    between atoms: _323  and  _324
REMARK  115  A    between atoms: _326  and  _328
REMARK  116  A    between atoms: _328  and  _329
REMARK  117  A    between atoms: _328  and  _331
REMARK  118  A    between atoms: _331  and  _332
REMARK  119  A    between atoms: _334  and  _336
REMARK  120  A    between atoms: _336  and  _337
REMARK  121  A    between atoms: _336  and  _339
REMARK  122  A    between atoms: _339  and  _340
REMARK  123  A    between atoms: _343  and  _345
REMARK  124  A    between atoms: _345  and  _346
REMARK  125  A    between atoms: _345  and  _348
REMARK  126  A    between atoms: _348  and  _349
REMARK  127  A    between atoms: _352  and  _354
REMARK  128  A    between atoms: _354  and  _355
REMARK  129  A    between atoms: _354  and  _357
REMARK  130  A    between atoms: _357  and  _358
REMARK  131  A    between atoms: _364  and  _365
REMARK  132  A    between atoms: _371  and  _372
REMARK  133  A    between atoms: _377  and  _379
REMARK  134  A    between atoms: _379  and  _380
REMARK  135  A    between atoms: _379  and  _382
REMARK  136  A    between atoms: _382  and  _383
REMARK  137  A    between atoms: _386  and  _388
REMARK  138  A    between atoms: _388  and  _389
REMARK  139  A    between atoms: _388  and  _391
REMARK  140  A    between atoms: _391  and  _392
REMARK  141  A    between atoms: _397  and  _398
REMARK  142  A    between atoms: _400  and  _402
REMARK  143  A    between atoms: _402  and  _403
REMARK  144  A    between atoms: _402  and  _405
REMARK  145  A    between atoms: _405  and  _406
REMARK  146  A    between atoms: _408  and  _410
REMARK  147  A    between atoms: _410  and  _411
REMARK  148  A    between atoms: _410  and  _413
REMARK  149  A    between atoms: _416  and  _418
REMARK  150  A    between atoms: _418  and  _419
REMARK  151  A    between atoms: _418  and  _421
REMARK  152  A    between atoms: _421  and  _422
REMARK  153  A    between atoms: _432  and  _434
REMARK  154  A    between atoms: _434  and  _435
REMARK  155  A    between atoms: _434  and  _437
REMARK  156  A    between atoms: _437  and  _438
REMARK  157  A    between atoms: _443  and  _445
REMARK  158  A    between atoms: _445  and  _446
REMARK  159  A    between atoms: _445  and  _448
REMARK  160  A    between atoms: _448  and  _449
REMARK  161  A    between atoms: _449  and  _450
REMARK  162  A    between atoms: _450  and  _451
REMARK                            x       y       z     vdW  Elec       q    Type
REMARK                         _______ _______ _______ _____ _____    ______ ____
ROOT
ATOM      1  O   HOH     1      15.622  36.432  11.404  0.00  0.00    +0.000 OA
ENDROOT
TORSDOF 0
REMARK  Name = ../refined-set-2016/4wr7/4wr7_pocket.pdb
REMARK  162 active torsions:
REMARK  status: ('A' for Active; 'I' for Inactive)
REMARK    1  A    between atoms: _1  and  _3
REMARK    2  A    between atoms: _3  and  _4
REMARK    3  A    between atoms: _3  and  _6
REMARK    4  A    between atoms: _6  and  _7
REMARK    5  A    between atoms: _17  and  _19
REMARK    6  A    between atoms: _19  and  _20
REMARK    7  A    between atoms: _19  and  _22
REMARK    8  A    between atoms: _22  and  _23
REMARK    9  A    between atoms: _28  and  _29
REMARK   10  A    between atoms: _31  and  _33
REMARK   11  A    between atoms: _33  and  _34
REMARK   12  A    between atoms: _33  and  _36
REMARK   13  A    between atoms: _36  and  _37
REMARK   14  A    between atoms: _47  and  _49
REMARK   15  A    between atoms: _49  and  _50
REMARK   16  A    between atoms: _49  and  _52
REMARK   17  A    between atoms: _52  and  _53
REMARK   18  A    between atoms: _56  and  _57
REMARK   19  A    between atoms: _62  and  _64
REMARK   20  A    between atoms: _64  and  _65
REMARK   21  A    between atoms: _64  and  _67
REMARK   22  A    between atoms: _67  and  _68
REMARK   23  A    between atoms: _73  and  _75
REMARK   24  A    between atoms: _75  and  _76
REMARK   25  A    between atoms: _75  and  _78
REMARK   26  A    between atoms: _78  and  _79
REMARK   27  A    between atoms: _81  and  _83
REMARK   28  A    between atoms: _83  and  _84
REMARK   29  A    between atoms: _83  and  _86
REMARK   30  A    between atoms: _86  and  _87
REMARK   31  A    between atoms: _92  and  _94
REMARK   32  A    between atoms: _94  and  _95
REMARK   33  A    between atoms: _94  and  _97
REMARK   34  A    between atoms: _97  and  _98
REMARK   35  A    between atoms: _103  and  _105
REMARK   36  A    between atoms: _105  and  _106
REMARK   37  A    between atoms: _105  and  _108
REMARK   38  A    between atoms: _108  and  _109
REMARK   39  A    between atoms: _115  and  _117
REMARK   40  A    between atoms: _117  and  _118
REMARK   41  A    between atoms: _117  and  _120
REMARK   42  A    between atoms: _120  and  _121
REMARK   43  A    between atoms: _121  and  _122
REMARK   44  A    between atoms: _127  and  _129
REMARK   45  A    between atoms: _129  and  _130
REMARK   46  A    between atoms: _129  and  _132
REMARK   47  A    between atoms: _132  and  _133
REMARK   48  A    between atoms: _139  and  _141
REMARK   49  A    between atoms: _152  and  _155
REMARK   50  A    between atoms: _155  and  _156
REMARK   51  A    between atoms: _164  and  _165
REMARK   52  A    between atoms: _173  and  _175
REMARK   53  A    between atoms: _175  and  _176
REMARK   54  A    between atoms: _175  and  _178
REMARK   55  A    between atoms: _178  and  _179
REMARK   56  A    between atoms: _179  and  _180
REMARK   57  A    between atoms: _183  and  _185
REMARK   58  A    between atoms: _185  and  _186
REMARK   59  A    between atoms: _185  and  _188
REMARK   60  A    between atoms: _188  and  _189
REMARK   61  A    between atoms: _194  and  _196
REMARK   62  A    between atoms: _196  and  _197
REMARK   63  A    between atoms: _196  and  _199
REMARK   64  A    between atoms: _199  and  _200
REMARK   65  A    between atoms: _200  and  _201
REMARK   66  A    between atoms: _204  and  _206
REMARK   67  A    between atoms: _206  and  _207
REMARK   68  A    between atoms: _206  and  _209
REMARK   69  A    between atoms: _209  and  _210
REMARK   70  A    between atoms: _213  and  _215
REMARK   71  A    between atoms: _215  and  _216
REMARK   72  A    between atoms: _215  and  _218
REMARK   73  A    between atoms: _218  and  _219
REMARK   74  A    between atoms: _220  and  ZN_460
REMARK   75  A    between atoms: _224  and  _226
REMARK   76  A    between atoms: _226  and  _227
REMARK   77  A    between atoms: _226  and  _229
REMARK   78  A    between atoms: _232  and  _234
REMARK   79  A    between atoms: _234  and  _235
REMARK   80  A    between atoms: _238  and  _240
REMARK   81  A    between atoms: _240  and  _241
REMARK   82  A    between atoms: _240  and  _243
REMARK   83  A    between atoms: _243  and  _244
REMARK   84  A    between atoms: _249  and  _251
REMARK   85  A    between atoms: _251  and  _252
REMARK   86  A    between atoms: _251  and  _254
REMARK   87  A    between atoms: _254  and  _255
REMARK   88  A    between atoms: _258  and  _260
REMARK   89  A    between atoms: _260  and  _261
REMARK   90  A    between atoms: _264  and  _266
REMARK   91  A    between atoms: _266  and  _267
REMARK   92  A    between atoms: _270  and  _272
REMARK   93  A    between atoms: _272  and  _273
REMARK   94  A    between atoms: _276  and  _278
REMARK   95  A    between atoms: _278  and  _279
REMARK   96  A    between atoms: _278  and  _281
REMARK   97  A    between atoms: _281  and  _282
REMARK   98  A    between atoms: _284  and  _286
REMARK   99  A    between atoms: _286  and  _287
REMARK  100  A    between atoms: _286  and  _289
REMARK  101  A    between atoms: _289  and  _290
REMARK  102  A    between atoms: _293  and  _295
REMARK  103  A    between atoms: _295  and  _296
REMARK  104  A    between atoms: _299  and  _301
REMARK  105  A    between atoms: _301  and  _302
REMARK  106  A    between atoms: _301  and  _304
REMARK  107  A    between atoms: _307  and  _309
REMARK  108  A    between atoms: _309  and  _310
REMARK  109  A    between atoms: _309  and  _312
REMARK  110  A    between atoms: _312  and  _313
REMARK  111  A    between atoms: _316  and  _318
REMARK  112  A    between atoms: _318  and  _319
REMARK  113  A    between atoms: _321  and  _323
REMARK  114  A    between atoms: _323  and  _324
REMARK  115  A    between atoms: _326  and  _328
REMARK  116  A    between atoms: _328  and  _329
REMARK  117  A    between atoms: _328  and  _331
REMARK  118  A    between atoms: _331  and  _332
REMARK  119  A    between atoms: _334  and  _336
REMARK  120  A    between atoms: _336  and  _337
REMARK  121  A    between atoms: _336  and  _339
REMARK  122  A    between atoms: _339  and  _340
REMARK  123  A    between atoms: _343  and  _345
REMARK  124  A    between atoms: _345  and  _346
REMARK  125  A    between atoms: _345  and  _348
REMARK  126  A    between atoms: _348  and  _349
REMARK  127  A    between atoms: _352  and  _354
REMARK  128  A    between atoms: _354  and  _355
REMARK  129  A    between atoms: _354  and  _357
REMARK  130  A    between atoms: _357  and  _358
REMARK  131  A    between atoms: _364  and  _365
REMARK  132  A    between atoms: _371  and  _372
REMARK  133  A    between atoms: _377  and  _379
REMARK  134  A    between atoms: _379  and  _380
REMARK  135  A    between atoms: _379  and  _382
REMARK  136  A    between atoms: _382  and  _383
REMARK  137  A    between atoms: _386  and  _388
REMARK  138  A    between atoms: _388  and  _389
REMARK  139  A    between atoms: _388  and  _391
REMARK  140  A    between atoms: _391  and  _392
REMARK  141  A    between atoms: _397  and  _398
REMARK  142  A    between atoms: _400  and  _402
REMARK  143  A    between atoms: _402  and  _403
REMARK  144  A    between atoms: _402  and  _405
REMARK  145  A    between atoms: _405  and  _406
REMARK  146  A    between atoms: _408  and  _410
REMARK  147  A    between atoms: _410  and  _411
REMARK  148  A    between atoms: _410  and  _413
REMARK  149  A    between atoms: _416  and  _418
REMARK  150  A    between atoms: _418  and  _419
REMARK  151  A    between atoms: _418  and  _421
REMARK  152  A    between atoms: _421  and  _422
REMARK  153  A    between atoms: _432  and  _434
REMARK  154  A    between atoms: _434  and  _435
REMARK  155  A    between atoms: _434  and  _437
REMARK  156  A    between atoms: _437  and  _438
REMARK  157  A    between atoms: _443  and  _445
REMARK  158  A    between atoms: _445  and  _446
REMARK  159  A    between atoms: _445  and  _448
REMARK  160  A    between atoms: _448  and  _449
REMARK  161  A    between atoms: _449  and  _450
REMARK  162  A    between atoms: _450  and  _451
REMARK                            x       y       z     vdW  Elec       q    Type
REMARK                         _______ _______ _______ _____ _____    ______ ____
ROOT
ATOM      1  O   HOH     1      12.245  40.442   9.207  0.00  0.00    +0.000 OA
ENDROOT
TORSDOF 0
REMARK  Name = ../refined-set-2016/4wr7/4wr7_pocket.pdb
REMARK  162 active torsions:
REMARK  status: ('A' for Active; 'I' for Inactive)
REMARK    1  A    between atoms: _1  and  _3
REMARK    2  A    between atoms: _3  and  _4
REMARK    3  A    between atoms: _3  and  _6
REMARK    4  A    between atoms: _6  and  _7
REMARK    5  A    between atoms: _17  and  _19
REMARK    6  A    between atoms: _19  and  _20
REMARK    7  A    between atoms: _19  and  _22
REMARK    8  A    between atoms: _22  and  _23
REMARK    9  A    between atoms: _28  and  _29
REMARK   10  A    between atoms: _31  and  _33
REMARK   11  A    between atoms: _33  and  _34
REMARK   12  A    between atoms: _33  and  _36
REMARK   13  A    between atoms: _36  and  _37
REMARK   14  A    between atoms: _47  and  _49
REMARK   15  A    between atoms: _49  and  _50
REMARK   16  A    between atoms: _49  and  _52
REMARK   17  A    between atoms: _52  and  _53
REMARK   18  A    between atoms: _56  and  _57
REMARK   19  A    between atoms: _62  and  _64
REMARK   20  A    between atoms: _64  and  _65
REMARK   21  A    between atoms: _64  and  _67
REMARK   22  A    between atoms: _67  and  _68
REMARK   23  A    between atoms: _73  and  _75
REMARK   24  A    between atoms: _75  and  _76
REMARK   25  A    between atoms: _75  and  _78
REMARK   26  A    between atoms: _78  and  _79
REMARK   27  A    between atoms: _81  and  _83
REMARK   28  A    between atoms: _83  and  _84
REMARK   29  A    between atoms: _83  and  _86
REMARK   30  A    between atoms: _86  and  _87
REMARK   31  A    between atoms: _92  and  _94
REMARK   32  A    between atoms: _94  and  _95
REMARK   33  A    between atoms: _94  and  _97
REMARK   34  A    between atoms: _97  and  _98
REMARK   35  A    between atoms: _103  and  _105
REMARK   36  A    between atoms: _105  and  _106
REMARK   37  A    between atoms: _105  and  _108
REMARK   38  A    between atoms: _108  and  _109
REMARK   39  A    between atoms: _115  and  _117
REMARK   40  A    between atoms: _117  and  _118
REMARK   41  A    between atoms: _117  and  _120
REMARK   42  A    between atoms: _120  and  _121
REMARK   43  A    between atoms: _121  and  _122
REMARK   44  A    between atoms: _127  and  _129
REMARK   45  A    between atoms: _129  and  _130
REMARK   46  A    between atoms: _129  and  _132
REMARK   47  A    between atoms: _132  and  _133
REMARK   48  A    between atoms: _139  and  _141
REMARK   49  A    between atoms: _152  and  _155
REMARK   50  A    between atoms: _155  and  _156
REMARK   51  A    between atoms: _164  and  _165
REMARK   52  A    between atoms: _173  and  _175
REMARK   53  A    between atoms: _175  and  _176
REMARK   54  A    between atoms: _175  and  _178
REMARK   55  A    between atoms: _178  and  _179
REMARK   56  A    between atoms: _179  and  _180
REMARK   57  A    between atoms: _183  and  _185
REMARK   58  A    between atoms: _185  and  _186
REMARK   59  A    between atoms: _185  and  _188
REMARK   60  A    between atoms: _188  and  _189
REMARK   61  A    between atoms: _194  and  _196
REMARK   62  A    between atoms: _196  and  _197
REMARK   63  A    between atoms: _196  and  _199
REMARK   64  A    between atoms: _199  and  _200
REMARK   65  A    between atoms: _200  and  _201
REMARK   66  A    between atoms: _204  and  _206
REMARK   67  A    between atoms: _206  and  _207
REMARK   68  A    between atoms: _206  and  _209
REMARK   69  A    between atoms: _209  and  _210
REMARK   70  A    between atoms: _213  and  _215
REMARK   71  A    between atoms: _215  and  _216
REMARK   72  A    between atoms: _215  and  _218
REMARK   73  A    between atoms: _218  and  _219
REMARK   74  A    between atoms: _220  and  ZN_460
REMARK   75  A    between atoms: _224  and  _226
REMARK   76  A    between atoms: _226  and  _227
REMARK   77  A    between atoms: _226  and  _229
REMARK   78  A    between atoms: _232  and  _234
REMARK   79  A    between atoms: _234  and  _235
REMARK   80  A    between atoms: _238  and  _240
REMARK   81  A    between atoms: _240  and  _241
REMARK   82  A    between atoms: _240  and  _243
REMARK   83  A    between atoms: _243  and  _244
REMARK   84  A    between atoms: _249  and  _251
REMARK   85  A    between atoms: _251  and  _252
REMARK   86  A    between atoms: _251  and  _254
REMARK   87  A    between atoms: _254  and  _255
REMARK   88  A    between atoms: _258  and  _260
REMARK   89  A    between atoms: _260  and  _261
REMARK   90  A    between atoms: _264  and  _266
REMARK   91  A    between atoms: _266  and  _267
REMARK   92  A    between atoms: _270  and  _272
REMARK   93  A    between atoms: _272  and  _273
REMARK   94  A    between atoms: _276  and  _278
REMARK   95  A    between atoms: _278  and  _279
REMARK   96  A    between atoms: _278  and  _281
REMARK   97  A    between atoms: _281  and  _282
REMARK   98  A    between atoms: _284  and  _286
REMARK   99  A    between atoms: _286  and  _287
REMARK  100  A    between atoms: _286  and  _289
REMARK  101  A    between atoms: _289  and  _290
REMARK  102  A    between atoms: _293  and  _295
REMARK  103  A    between atoms: _295  and  _296
REMARK  104  A    between atoms: _299  and  _301
REMARK  105  A    between atoms: _301  and  _302
REMARK  106  A    between atoms: _301  and  _304
REMARK  107  A    between atoms: _307  and  _309
REMARK  108  A    between atoms: _309  and  _310
REMARK  109  A    between atoms: _309  and  _312
REMARK  110  A    between atoms: _312  and  _313
REMARK  111  A    between atoms: _316  and  _318
REMARK  112  A    between atoms: _318  and  _319
REMARK  113  A    between atoms: _321  and  _323
REMARK  114  A    between atoms: _323  and  _324
REMARK  115  A    between atoms: _326  and  _328
REMARK  116  A    between atoms: _328  and  _329
REMARK  117  A    between atoms: _328  and  _331
REMARK  118  A    between atoms: _331  and  _332
REMARK  119  A    between atoms: _334  and  _336
REMARK  120  A    between atoms: _336  and  _337
REMARK  121  A    between atoms: _336  and  _339
REMARK  122  A    between atoms: _339  and  _340
REMARK  123  A    between atoms: _343  and  _345
REMARK  124  A    between atoms: _345  and  _346
REMARK  125  A    between atoms: _345  and  _348
REMARK  126  A    between atoms: _348  and  _349
REMARK  127  A    between atoms: _352  and  _354
REMARK  128  A    between atoms: _354  and  _355
REMARK  129  A    between atoms: _354  and  _357
REMARK  130  A    between atoms: _357  and  _358
REMARK  131  A    between atoms: _364  and  _365
REMARK  132  A    between atoms: _371  and  _372
REMARK  133  A    between atoms: _377  and  _379
REMARK  134  A    between atoms: _379  and  _380
REMARK  135  A    between atoms: _379  and  _382
REMARK  136  A    between atoms: _382  and  _383
REMARK  137  A    between atoms: _386  and  _388
REMARK  138  A    between atoms: _388  and  _389
REMARK  139  A    between atoms: _388  and  _391
REMARK  140  A    between atoms: _391  and  _392
REMARK  141  A    between atoms: _397  and  _398
REMARK  142  A    between atoms: _400  and  _402
REMARK  143  A    between atoms: _402  and  _403
REMARK  144  A    between atoms: _402  and  _405
REMARK  145  A    between atoms: _405  and  _406
REMARK  146  A    between atoms: _408  and  _410
REMARK  147  A    between atoms: _410  and  _411
REMARK  148  A    between atoms: _410  and  _413
REMARK  149  A    between atoms: _416  and  _418
REMARK  150  A    between atoms: _418  and  _419
REMARK  151  A    between atoms: _418  and  _421
REMARK  152  A    between atoms: _421  and  _422
REMARK  153  A    between atoms: _432  and  _434
REMARK  154  A    between atoms: _434  and  _435
REMARK  155  A    between atoms: _434  and  _437
REMARK  156  A    between atoms: _437  and  _438
REMARK  157  A    between atoms: _443  and  _445
REMARK  158  A    between atoms: _445  and  _446
REMARK  159  A    between atoms: _445  and  _448
REMARK  160  A    between atoms: _448  and  _449
REMARK  161  A    between atoms: _449  and  _450
REMARK  162  A    between atoms: _450  and  _451
REMARK                            x       y       z     vdW  Elec       q    Type
REMARK                         _______ _______ _______ _____ _____    ______ ____
ROOT
ATOM      1  O   HOH     1      18.530  42.118  18.643  0.00  0.00    +0.000 OA
ENDROOT
TORSDOF 0
REMARK  Name = ../refined-set-2016/4wr7/4wr7_pocket.pdb
REMARK  162 active torsions:
REMARK  status: ('A' for Active; 'I' for Inactive)
REMARK    1  A    between atoms: _1  and  _3
REMARK    2  A    between atoms: _3  and  _4
REMARK    3  A    between atoms: _3  and  _6
REMARK    4  A    between atoms: _6  and  _7
REMARK    5  A    between atoms: _17  and  _19
REMARK    6  A    between atoms: _19  and  _20
REMARK    7  A    between atoms: _19  and  _22
REMARK    8  A    between atoms: _22  and  _23
REMARK    9  A    between atoms: _28  and  _29
REMARK   10  A    between atoms: _31  and  _33
REMARK   11  A    between atoms: _33  and  _34
REMARK   12  A    between atoms: _33  and  _36
REMARK   13  A    between atoms: _36  and  _37
REMARK   14  A    between atoms: _47  and  _49
REMARK   15  A    between atoms: _49  and  _50
REMARK   16  A    between atoms: _49  and  _52
REMARK   17  A    between atoms: _52  and  _53
REMARK   18  A    between atoms: _56  and  _57
REMARK   19  A    between atoms: _62  and  _64
REMARK   20  A    between atoms: _64  and  _65
REMARK   21  A    between atoms: _64  and  _67
REMARK   22  A    between atoms: _67  and  _68
REMARK   23  A    between atoms: _73  and  _75
REMARK   24  A    between atoms: _75  and  _76
REMARK   25  A    between atoms: _75  and  _78
REMARK   26  A    between atoms: _78  and  _79
REMARK   27  A    between atoms: _81  and  _83
REMARK   28  A    between atoms: _83  and  _84
REMARK   29  A    between atoms: _83  and  _86
REMARK   30  A    between atoms: _86  and  _87
REMARK   31  A    between atoms: _92  and  _94
REMARK   32  A    between atoms: _94  and  _95
REMARK   33  A    between atoms: _94  and  _97
REMARK   34  A    between atoms: _97  and  _98
REMARK   35  A    between atoms: _103  and  _105
REMARK   36  A    between atoms: _105  and  _106
REMARK   37  A    between atoms: _105  and  _108
REMARK   38  A    between atoms: _108  and  _109
REMARK   39  A    between atoms: _115  and  _117
REMARK   40  A    between atoms: _117  and  _118
REMARK   41  A    between atoms: _117  and  _120
REMARK   42  A    between atoms: _120  and  _121
REMARK   43  A    between atoms: _121  and  _122
REMARK   44  A    between atoms: _127  and  _129
REMARK   45  A    between atoms: _129  and  _130
REMARK   46  A    between atoms: _129  and  _132
REMARK   47  A    between atoms: _132  and  _133
REMARK   48  A    between atoms: _139  and  _141
REMARK   49  A    between atoms: _152  and  _155
REMARK   50  A    between atoms: _155  and  _156
REMARK   51  A    between atoms: _164  and  _165
REMARK   52  A    between atoms: _173  and  _175
REMARK   53  A    between atoms: _175  and  _176
REMARK   54  A    between atoms: _175  and  _178
REMARK   55  A    between atoms: _178  and  _179
REMARK   56  A    between atoms: _179  and  _180
REMARK   57  A    between atoms: _183  and  _185
REMARK   58  A    between atoms: _185  and  _186
REMARK   59  A    between atoms: _185  and  _188
REMARK   60  A    between atoms: _188  and  _189
REMARK   61  A    between atoms: _194  and  _196
REMARK   62  A    between atoms: _196  and  _197
REMARK   63  A    between atoms: _196  and  _199
REMARK   64  A    between atoms: _199  and  _200
REMARK   65  A    between atoms: _200  and  _201
REMARK   66  A    between atoms: _204  and  _206
REMARK   67  A    between atoms: _206  and  _207
REMARK   68  A    between atoms: _206  and  _209
REMARK   69  A    between atoms: _209  and  _210
REMARK   70  A    between atoms: _213  and  _215
REMARK   71  A    between atoms: _215  and  _216
REMARK   72  A    between atoms: _215  and  _218
REMARK   73  A    between atoms: _218  and  _219
REMARK   74  A    between atoms: _220  and  ZN_460
REMARK   75  A    between atoms: _224  and  _226
REMARK   76  A    between atoms: _226  and  _227
REMARK   77  A    between atoms: _226  and  _229
REMARK   78  A    between atoms: _232  and  _234
REMARK   79  A    between atoms: _234  and  _235
REMARK   80  A    between atoms: _238  and  _240
REMARK   81  A    between atoms: _240  and  _241
REMARK   82  A    between atoms: _240  and  _243
REMARK   83  A    between atoms: _243  and  _244
REMARK   84  A    between atoms: _249  and  _251
REMARK   85  A    between atoms: _251  and  _252
REMARK   86  A    between atoms: _251  and  _254
REMARK   87  A    between atoms: _254  and  _255
REMARK   88  A    between atoms: _258  and  _260
REMARK   89  A    between atoms: _260  and  _261
REMARK   90  A    between atoms: _264  and  _266
REMARK   91  A    between atoms: _266  and  _267
REMARK   92  A    between atoms: _270  and  _272
REMARK   93  A    between atoms: _272  and  _273
REMARK   94  A    between atoms: _276  and  _278
REMARK   95  A    between atoms: _278  and  _279
REMARK   96  A    between atoms: _278  and  _281
REMARK   97  A    between atoms: _281  and  _282
REMARK   98  A    between atoms: _284  and  _286
REMARK   99  A    between atoms: _286  and  _287
REMARK  100  A    between atoms: _286  and  _289
REMARK  101  A    between atoms: _289  and  _290
REMARK  102  A    between atoms: _293  and  _295
REMARK  103  A    between atoms: _295  and  _296
REMARK  104  A    between atoms: _299  and  _301
REMARK  105  A    between atoms: _301  and  _302
REMARK  106  A    between atoms: _301  and  _304
REMARK  107  A    between atoms: _307  and  _309
REMARK  108  A    between atoms: _309  and  _310
REMARK  109  A    between atoms: _309  and  _312
REMARK  110  A    between atoms: _312  and  _313
REMARK  111  A    between atoms: _316  and  _318
REMARK  112  A    between atoms: _318  and  _319
REMARK  113  A    between atoms: _321  and  _323
REMARK  114  A    between atoms: _323  and  _324
REMARK  115  A    between atoms: _326  and  _328
REMARK  116  A    between atoms: _328  and  _329
REMARK  117  A    between atoms: _328  and  _331
REMARK  118  A    between atoms: _331  and  _332
REMARK  119  A    between atoms: _334  and  _336
REMARK  120  A    between atoms: _336  and  _337
REMARK  121  A    between atoms: _336  and  _339
REMARK  122  A    between atoms: _339  and  _340
REMARK  123  A    between atoms: _343  and  _345
REMARK  124  A    between atoms: _345  and  _346
REMARK  125  A    between atoms: _345  and  _348
REMARK  126  A    between atoms: _348  and  _349
REMARK  127  A    between atoms: _352  and  _354
REMARK  128  A    between atoms: _354  and  _355
REMARK  129  A    between atoms: _354  and  _357
REMARK  130  A    between atoms: _357  and  _358
REMARK  131  A    between atoms: _364  and  _365
REMARK  132  A    between atoms: _371  and  _372
REMARK  133  A    between atoms: _377  and  _379
REMARK  134  A    between atoms: _379  and  _380
REMARK  135  A    between atoms: _379  and  _382
REMARK  136  A    between atoms: _382  and  _383
REMARK  137  A    between atoms: _386  and  _388
REMARK  138  A    between atoms: _388  and  _389
REMARK  139  A    between atoms: _388  and  _391
REMARK  140  A    between atoms: _391  and  _392
REMARK  141  A    between atoms: _397  and  _398
REMARK  142  A    between atoms: _400  and  _402
REMARK  143  A    between atoms: _402  and  _403
REMARK  144  A    between atoms: _402  and  _405
REMARK  145  A    between atoms: _405  and  _406
REMARK  146  A    between atoms: _408  and  _410
REMARK  147  A    between atoms: _410  and  _411
REMARK  148  A    between atoms: _410  and  _413
REMARK  149  A    between atoms: _416  and  _418
REMARK  150  A    between atoms: _418  and  _419
REMARK  151  A    between atoms: _418  and  _421
REMARK  152  A    between atoms: _421  and  _422
REMARK  153  A    between atoms: _432  and  _434
REMARK  154  A    between atoms: _434  and  _435
REMARK  155  A    between atoms: _434  and  _437
REMARK  156  A    between atoms: _437  and  _438
REMARK  157  A    between atoms: _443  and  _445
REMARK  158  A    between atoms: _445  and  _446
REMARK  159  A    between atoms: _445  and  _448
REMARK  160  A    between atoms: _448  and  _449
REMARK  161  A    between atoms: _449  and  _450
REMARK  162  A    between atoms: _450  and  _451
REMARK                            x       y       z     vdW  Elec       q    Type
REMARK                         _______ _______ _______ _____ _____    ______ ____
ROOT
ATOM      1  O   HOH     1      20.319  38.912  15.704  0.00  0.00    +0.000 OA
ENDROOT
TORSDOF 0
REMARK  Name = ../refined-set-2016/4wr7/4wr7_pocket.pdb
REMARK  162 active torsions:
REMARK  status: ('A' for Active; 'I' for Inactive)
REMARK    1  A    between atoms: _1  and  _3
REMARK    2  A    between atoms: _3  and  _4
REMARK    3  A    between atoms: _3  and  _6
REMARK    4  A    between atoms: _6  and  _7
REMARK    5  A    between atoms: _17  and  _19
REMARK    6  A    between atoms: _19  and  _20
REMARK    7  A    between atoms: _19  and  _22
REMARK    8  A    between atoms: _22  and  _23
REMARK    9  A    between atoms: _28  and  _29
REMARK   10  A    between atoms: _31  and  _33
REMARK   11  A    between atoms: _33  and  _34
REMARK   12  A    between atoms: _33  and  _36
REMARK   13  A    between atoms: _36  and  _37
REMARK   14  A    between atoms: _47  and  _49
REMARK   15  A    between atoms: _49  and  _50
REMARK   16  A    between atoms: _49  and  _52
REMARK   17  A    between atoms: _52  and  _53
REMARK   18  A    between atoms: _56  and  _57
REMARK   19  A    between atoms: _62  and  _64
REMARK   20  A    between atoms: _64  and  _65
REMARK   21  A    between atoms: _64  and  _67
REMARK   22  A    between atoms: _67  and  _68
REMARK   23  A    between atoms: _73  and  _75
REMARK   24  A    between atoms: _75  and  _76
REMARK   25  A    between atoms: _75  and  _78
REMARK   26  A    between atoms: _78  and  _79
REMARK   27  A    between atoms: _81  and  _83
REMARK   28  A    between atoms: _83  and  _84
REMARK   29  A    between atoms: _83  and  _86
REMARK   30  A    between atoms: _86  and  _87
REMARK   31  A    between atoms: _92  and  _94
REMARK   32  A    between atoms: _94  and  _95
REMARK   33  A    between atoms: _94  and  _97
REMARK   34  A    between atoms: _97  and  _98
REMARK   35  A    between atoms: _103  and  _105
REMARK   36  A    between atoms: _105  and  _106
REMARK   37  A    between atoms: _105  and  _108
REMARK   38  A    between atoms: _108  and  _109
REMARK   39  A    between atoms: _115  and  _117
REMARK   40  A    between atoms: _117  and  _118
REMARK   41  A    between atoms: _117  and  _120
REMARK   42  A    between atoms: _120  and  _121
REMARK   43  A    between atoms: _121  and  _122
REMARK   44  A    between atoms: _127  and  _129
REMARK   45  A    between atoms: _129  and  _130
REMARK   46  A    between atoms: _129  and  _132
REMARK   47  A    between atoms: _132  and  _133
REMARK   48  A    between atoms: _139  and  _141
REMARK   49  A    between atoms: _152  and  _155
REMARK   50  A    between atoms: _155  and  _156
REMARK   51  A    between atoms: _164  and  _165
REMARK   52  A    between atoms: _173  and  _175
REMARK   53  A    between atoms: _175  and  _176
REMARK   54  A    between atoms: _175  and  _178
REMARK   55  A    between atoms: _178  and  _179
REMARK   56  A    between atoms: _179  and  _180
REMARK   57  A    between atoms: _183  and  _185
REMARK   58  A    between atoms: _185  and  _186
REMARK   59  A    between atoms: _185  and  _188
REMARK   60  A    between atoms: _188  and  _189
REMARK   61  A    between atoms: _194  and  _196
REMARK   62  A    between atoms: _196  and  _197
REMARK   63  A    between atoms: _196  and  _199
REMARK   64  A    between atoms: _199  and  _200
REMARK   65  A    between atoms: _200  and  _201
REMARK   66  A    between atoms: _204  and  _206
REMARK   67  A    between atoms: _206  and  _207
REMARK   68  A    between atoms: _206  and  _209
REMARK   69  A    between atoms: _209  and  _210
REMARK   70  A    between atoms: _213  and  _215
REMARK   71  A    between atoms: _215  and  _216
REMARK   72  A    between atoms: _215  and  _218
REMARK   73  A    between atoms: _218  and  _219
REMARK   74  A    between atoms: _220  and  ZN_460
REMARK   75  A    between atoms: _224  and  _226
REMARK   76  A    between atoms: _226  and  _227
REMARK   77  A    between atoms: _226  and  _229
REMARK   78  A    between atoms: _232  and  _234
REMARK   79  A    between atoms: _234  and  _235
REMARK   80  A    between atoms: _238  and  _240
REMARK   81  A    between atoms: _240  and  _241
REMARK   82  A    between atoms: _240  and  _243
REMARK   83  A    between atoms: _243  and  _244
REMARK   84  A    between atoms: _249  and  _251
REMARK   85  A    between atoms: _251  and  _252
REMARK   86  A    between atoms: _251  and  _254
REMARK   87  A    between atoms: _254  and  _255
REMARK   88  A    between atoms: _258  and  _260
REMARK   89  A    between atoms: _260  and  _261
REMARK   90  A    between atoms: _264  and  _266
REMARK   91  A    between atoms: _266  and  _267
REMARK   92  A    between atoms: _270  and  _272
REMARK   93  A    between atoms: _272  and  _273
REMARK   94  A    between atoms: _276  and  _278
REMARK   95  A    between atoms: _278  and  _279
REMARK   96  A    between atoms: _278  and  _281
REMARK   97  A    between atoms: _281  and  _282
REMARK   98  A    between atoms: _284  and  _286
REMARK   99  A    between atoms: _286  and  _287
REMARK  100  A    between atoms: _286  and  _289
REMARK  101  A    between atoms: _289  and  _290
REMARK  102  A    between atoms: _293  and  _295
REMARK  103  A    between atoms: _295  and  _296
REMARK  104  A    between atoms: _299  and  _301
REMARK  105  A    between atoms: _301  and  _302
REMARK  106  A    between atoms: _301  and  _304
REMARK  107  A    between atoms: _307  and  _309
REMARK  108  A    between atoms: _309  and  _310
REMARK  109  A    between atoms: _309  and  _312
REMARK  110  A    between atoms: _312  and  _313
REMARK  111  A    between atoms: _316  and  _318
REMARK  112  A    between atoms: _318  and  _319
REMARK  113  A    between atoms: _321  and  _323
REMARK  114  A    between atoms: _323  and  _324
REMARK  115  A    between atoms: _326  and  _328
REMARK  116  A    between atoms: _328  and  _329
REMARK  117  A    between atoms: _328  and  _331
REMARK  118  A    between atoms: _331  and  _332
REMARK  119  A    between atoms: _334  and  _336
REMARK  120  A    between atoms: _336  and  _337
REMARK  121  A    between atoms: _336  and  _339
REMARK  122  A    between atoms: _339  and  _340
REMARK  123  A    between atoms: _343  and  _345
REMARK  124  A    between atoms: _345  and  _346
REMARK  125  A    between atoms: _345  and  _348
REMARK  126  A    between atoms: _348  and  _349
REMARK  127  A    between atoms: _352  and  _354
REMARK  128  A    between atoms: _354  and  _355
REMARK  129  A    between atoms: _354  and  _357
REMARK  130  A    between atoms: _357  and  _358
REMARK  131  A    between atoms: _364  and  _365
REMARK  132  A    between atoms: _371  and  _372
REMARK  133  A    between atoms: _377  and  _379
REMARK  134  A    between atoms: _379  and  _380
REMARK  135  A    between atoms: _379  and  _382
REMARK  136  A    between atoms: _382  and  _383
REMARK  137  A    between atoms: _386  and  _388
REMARK  138  A    between atoms: _388  and  _389
REMARK  139  A    between atoms: _388  and  _391
REMARK  140  A    between atoms: _391  and  _392
REMARK  141  A    between atoms: _397  and  _398
REMARK  142  A    between atoms: _400  and  _402
REMARK  143  A    between atoms: _402  and  _403
REMARK  144  A    between atoms: _402  and  _405
REMARK  145  A    between atoms: _405  and  _406
REMARK  146  A    between atoms: _408  and  _410
REMARK  147  A    between atoms: _410  and  _411
REMARK  148  A    between atoms: _410  and  _413
REMARK  149  A    between atoms: _416  and  _418
REMARK  150  A    between atoms: _418  and  _419
REMARK  151  A    between atoms: _418  and  _421
REMARK  152  A    between atoms: _421  and  _422
REMARK  153  A    between atoms: _432  and  _434
REMARK  154  A    between atoms: _434  and  _435
REMARK  155  A    between atoms: _434  and  _437
REMARK  156  A    between atoms: _437  and  _438
REMARK  157  A    between atoms: _443  and  _445
REMARK  158  A    between atoms: _445  and  _446
REMARK  159  A    between atoms: _445  and  _448
REMARK  160  A    between atoms: _448  and  _449
REMARK  161  A    between atoms: _449  and  _450
REMARK  162  A    between atoms: _450  and  _451
REMARK                            x       y       z     vdW  Elec       q    Type
REMARK                         _______ _______ _______ _____ _____    ______ ____
ROOT
ATOM      1  O   HOH     1      20.530  36.570  17.038  0.00  0.00    +0.000 OA
ENDROOT
TORSDOF 0
REMARK  Name = ../refined-set-2016/4wr7/4wr7_pocket.pdb
REMARK  162 active torsions:
REMARK  status: ('A' for Active; 'I' for Inactive)
REMARK    1  A    between atoms: _1  and  _3
REMARK    2  A    between atoms: _3  and  _4
REMARK    3  A    between atoms: _3  and  _6
REMARK    4  A    between atoms: _6  and  _7
REMARK    5  A    between atoms: _17  and  _19
REMARK    6  A    between atoms: _19  and  _20
REMARK    7  A    between atoms: _19  and  _22
REMARK    8  A    between atoms: _22  and  _23
REMARK    9  A    between atoms: _28  and  _29
REMARK   10  A    between atoms: _31  and  _33
REMARK   11  A    between atoms: _33  and  _34
REMARK   12  A    between atoms: _33  and  _36
REMARK   13  A    between atoms: _36  and  _37
REMARK   14  A    between atoms: _47  and  _49
REMARK   15  A    between atoms: _49  and  _50
REMARK   16  A    between atoms: _49  and  _52
REMARK   17  A    between atoms: _52  and  _53
REMARK   18  A    between atoms: _56  and  _57
REMARK   19  A    between atoms: _62  and  _64
REMARK   20  A    between atoms: _64  and  _65
REMARK   21  A    between atoms: _64  and  _67
REMARK   22  A    between atoms: _67  and  _68
REMARK   23  A    between atoms: _73  and  _75
REMARK   24  A    between atoms: _75  and  _76
REMARK   25  A    between atoms: _75  and  _78
REMARK   26  A    between atoms: _78  and  _79
REMARK   27  A    between atoms: _81  and  _83
REMARK   28  A    between atoms: _83  and  _84
REMARK   29  A    between atoms: _83  and  _86
REMARK   30  A    between atoms: _86  and  _87
REMARK   31  A    between atoms: _92  and  _94
REMARK   32  A    between atoms: _94  and  _95
REMARK   33  A    between atoms: _94  and  _97
REMARK   34  A    between atoms: _97  and  _98
REMARK   35  A    between atoms: _103  and  _105
REMARK   36  A    between atoms: _105  and  _106
REMARK   37  A    between atoms: _105  and  _108
REMARK   38  A    between atoms: _108  and  _109
REMARK   39  A    between atoms: _115  and  _117
REMARK   40  A    between atoms: _117  and  _118
REMARK   41  A    between atoms: _117  and  _120
REMARK   42  A    between atoms: _120  and  _121
REMARK   43  A    between atoms: _121  and  _122
REMARK   44  A    between atoms: _127  and  _129
REMARK   45  A    between atoms: _129  and  _130
REMARK   46  A    between atoms: _129  and  _132
REMARK   47  A    between atoms: _132  and  _133
REMARK   48  A    between atoms: _139  and  _141
REMARK   49  A    between atoms: _152  and  _155
REMARK   50  A    between atoms: _155  and  _156
REMARK   51  A    between atoms: _164  and  _165
REMARK   52  A    between atoms: _173  and  _175
REMARK   53  A    between atoms: _175  and  _176
REMARK   54  A    between atoms: _175  and  _178
REMARK   55  A    between atoms: _178  and  _179
REMARK   56  A    between atoms: _179  and  _180
REMARK   57  A    between atoms: _183  and  _185
REMARK   58  A    between atoms: _185  and  _186
REMARK   59  A    between atoms: _185  and  _188
REMARK   60  A    between atoms: _188  and  _189
REMARK   61  A    between atoms: _194  and  _196
REMARK   62  A    between atoms: _196  and  _197
REMARK   63  A    between atoms: _196  and  _199
REMARK   64  A    between atoms: _199  and  _200
REMARK   65  A    between atoms: _200  and  _201
REMARK   66  A    between atoms: _204  and  _206
REMARK   67  A    between atoms: _206  and  _207
REMARK   68  A    between atoms: _206  and  _209
REMARK   69  A    between atoms: _209  and  _210
REMARK   70  A    between atoms: _213  and  _215
REMARK   71  A    between atoms: _215  and  _216
REMARK   72  A    between atoms: _215  and  _218
REMARK   73  A    between atoms: _218  and  _219
REMARK   74  A    between atoms: _220  and  ZN_460
REMARK   75  A    between atoms: _224  and  _226
REMARK   76  A    between atoms: _226  and  _227
REMARK   77  A    between atoms: _226  and  _229
REMARK   78  A    between atoms: _232  and  _234
REMARK   79  A    between atoms: _234  and  _235
REMARK   80  A    between atoms: _238  and  _240
REMARK   81  A    between atoms: _240  and  _241
REMARK   82  A    between atoms: _240  and  _243
REMARK   83  A    between atoms: _243  and  _244
REMARK   84  A    between atoms: _249  and  _251
REMARK   85  A    between atoms: _251  and  _252
REMARK   86  A    between atoms: _251  and  _254
REMARK   87  A    between atoms: _254  and  _255
REMARK   88  A    between atoms: _258  and  _260
REMARK   89  A    between atoms: _260  and  _261
REMARK   90  A    between atoms: _264  and  _266
REMARK   91  A    between atoms: _266  and  _267
REMARK   92  A    between atoms: _270  and  _272
REMARK   93  A    between atoms: _272  and  _273
REMARK   94  A    between atoms: _276  and  _278
REMARK   95  A    between atoms: _278  and  _279
REMARK   96  A    between atoms: _278  and  _281
REMARK   97  A    between atoms: _281  and  _282
REMARK   98  A    between atoms: _284  and  _286
REMARK   99  A    between atoms: _286  and  _287
REMARK  100  A    between atoms: _286  and  _289
REMARK  101  A    between atoms: _289  and  _290
REMARK  102  A    between atoms: _293  and  _295
REMARK  103  A    between atoms: _295  and  _296
REMARK  104  A    between atoms: _299  and  _301
REMARK  105  A    between atoms: _301  and  _302
REMARK  106  A    between atoms: _301  and  _304
REMARK  107  A    between atoms: _307  and  _309
REMARK  108  A    between atoms: _309  and  _310
REMARK  109  A    between atoms: _309  and  _312
REMARK  110  A    between atoms: _312  and  _313
REMARK  111  A    between atoms: _316  and  _318
REMARK  112  A    between atoms: _318  and  _319
REMARK  113  A    between atoms: _321  and  _323
REMARK  114  A    between atoms: _323  and  _324
REMARK  115  A    between atoms: _326  and  _328
REMARK  116  A    between atoms: _328  and  _329
REMARK  117  A    between atoms: _328  and  _331
REMARK  118  A    between atoms: _331  and  _332
REMARK  119  A    between atoms: _334  and  _336
REMARK  120  A    between atoms: _336  and  _337
REMARK  121  A    between atoms: _336  and  _339
REMARK  122  A    between atoms: _339  and  _340
REMARK  123  A    between atoms: _343  and  _345
REMARK  124  A    between atoms: _345  and  _346
REMARK  125  A    between atoms: _345  and  _348
REMARK  126  A    between atoms: _348  and  _349
REMARK  127  A    between atoms: _352  and  _354
REMARK  128  A    between atoms: _354  and  _355
REMARK  129  A    between atoms: _354  and  _357
REMARK  130  A    between atoms: _357  and  _358
REMARK  131  A    between atoms: _364  and  _365
REMARK  132  A    between atoms: _371  and  _372
REMARK  133  A    between atoms: _377  and  _379
REMARK  134  A    between atoms: _379  and  _380
REMARK  135  A    between atoms: _379  and  _382
REMARK  136  A    between atoms: _382  and  _383
REMARK  137  A    between atoms: _386  and  _388
REMARK  138  A    between atoms: _388  and  _389
REMARK  139  A    between atoms: _388  and  _391
REMARK  140  A    between atoms: _391  and  _392
REMARK  141  A    between atoms: _397  and  _398
REMARK  142  A    between atoms: _400  and  _402
REMARK  143  A    between atoms: _402  and  _403
REMARK  144  A    between atoms: _402  and  _405
REMARK  145  A    between atoms: _405  and  _406
REMARK  146  A    between atoms: _408  and  _410
REMARK  147  A    between atoms: _410  and  _411
REMARK  148  A    between atoms: _410  and  _413
REMARK  149  A    between atoms: _416  and  _418
REMARK  150  A    between atoms: _418  and  _419
REMARK  151  A    between atoms: _418  and  _421
REMARK  152  A    between atoms: _421  and  _422
REMARK  153  A    between atoms: _432  and  _434
REMARK  154  A    between atoms: _434  and  _435
REMARK  155  A    between atoms: _434  and  _437
REMARK  156  A    between atoms: _437  and  _438
REMARK  157  A    between atoms: _443  and  _445
REMARK  158  A    between atoms: _445  and  _446
REMARK  159  A    between atoms: _445  and  _448
REMARK  160  A    between atoms: _448  and  _449
REMARK  161  A    between atoms: _449  and  _450
REMARK  162  A    between atoms: _450  and  _451
REMARK                            x       y       z     vdW  Elec       q    Type
REMARK                         _______ _______ _______ _____ _____    ______ ____
ROOT
ATOM      1  O   HOH     1      17.815  35.894  16.025  0.00  0.00    +0.000 OA
ENDROOT
TORSDOF 0
REMARK  Name = ../refined-set-2016/4wr7/4wr7_pocket.pdb
REMARK  162 active torsions:
REMARK  status: ('A' for Active; 'I' for Inactive)
REMARK    1  A    between atoms: _1  and  _3
REMARK    2  A    between atoms: _3  and  _4
REMARK    3  A    between atoms: _3  and  _6
REMARK    4  A    between atoms: _6  and  _7
REMARK    5  A    between atoms: _17  and  _19
REMARK    6  A    between atoms: _19  and  _20
REMARK    7  A    between atoms: _19  and  _22
REMARK    8  A    between atoms: _22  and  _23
REMARK    9  A    between atoms: _28  and  _29
REMARK   10  A    between atoms: _31  and  _33
REMARK   11  A    between atoms: _33  and  _34
REMARK   12  A    between atoms: _33  and  _36
REMARK   13  A    between atoms: _36  and  _37
REMARK   14  A    between atoms: _47  and  _49
REMARK   15  A    between atoms: _49  and  _50
REMARK   16  A    between atoms: _49  and  _52
REMARK   17  A    between atoms: _52  and  _53
REMARK   18  A    between atoms: _56  and  _57
REMARK   19  A    between atoms: _62  and  _64
REMARK   20  A    between atoms: _64  and  _65
REMARK   21  A    between atoms: _64  and  _67
REMARK   22  A    between atoms: _67  and  _68
REMARK   23  A    between atoms: _73  and  _75
REMARK   24  A    between atoms: _75  and  _76
REMARK   25  A    between atoms: _75  and  _78
REMARK   26  A    between atoms: _78  and  _79
REMARK   27  A    between atoms: _81  and  _83
REMARK   28  A    between atoms: _83  and  _84
REMARK   29  A    between atoms: _83  and  _86
REMARK   30  A    between atoms: _86  and  _87
REMARK   31  A    between atoms: _92  and  _94
REMARK   32  A    between atoms: _94  and  _95
REMARK   33  A    between atoms: _94  and  _97
REMARK   34  A    between atoms: _97  and  _98
REMARK   35  A    between atoms: _103  and  _105
REMARK   36  A    between atoms: _105  and  _106
REMARK   37  A    between atoms: _105  and  _108
REMARK   38  A    between atoms: _108  and  _109
REMARK   39  A    between atoms: _115  and  _117
REMARK   40  A    between atoms: _117  and  _118
REMARK   41  A    between atoms: _117  and  _120
REMARK   42  A    between atoms: _120  and  _121
REMARK   43  A    between atoms: _121  and  _122
REMARK   44  A    between atoms: _127  and  _129
REMARK   45  A    between atoms: _129  and  _130
REMARK   46  A    between atoms: _129  and  _132
REMARK   47  A    between atoms: _132  and  _133
REMARK   48  A    between atoms: _139  and  _141
REMARK   49  A    between atoms: _152  and  _155
REMARK   50  A    between atoms: _155  and  _156
REMARK   51  A    between atoms: _164  and  _165
REMARK   52  A    between atoms: _173  and  _175
REMARK   53  A    between atoms: _175  and  _176
REMARK   54  A    between atoms: _175  and  _178
REMARK   55  A    between atoms: _178  and  _179
REMARK   56  A    between atoms: _179  and  _180
REMARK   57  A    between atoms: _183  and  _185
REMARK   58  A    between atoms: _185  and  _186
REMARK   59  A    between atoms: _185  and  _188
REMARK   60  A    between atoms: _188  and  _189
REMARK   61  A    between atoms: _194  and  _196
REMARK   62  A    between atoms: _196  and  _197
REMARK   63  A    between atoms: _196  and  _199
REMARK   64  A    between atoms: _199  and  _200
REMARK   65  A    between atoms: _200  and  _201
REMARK   66  A    between atoms: _204  and  _206
REMARK   67  A    between atoms: _206  and  _207
REMARK   68  A    between atoms: _206  and  _209
REMARK   69  A    between atoms: _209  and  _210
REMARK   70  A    between atoms: _213  and  _215
REMARK   71  A    between atoms: _215  and  _216
REMARK   72  A    between atoms: _215  and  _218
REMARK   73  A    between atoms: _218  and  _219
REMARK   74  A    between atoms: _220  and  ZN_460
REMARK   75  A    between atoms: _224  and  _226
REMARK   76  A    between atoms: _226  and  _227
REMARK   77  A    between atoms: _226  and  _229
REMARK   78  A    between atoms: _232  and  _234
REMARK   79  A    between atoms: _234  and  _235
REMARK   80  A    between atoms: _238  and  _240
REMARK   81  A    between atoms: _240  and  _241
REMARK   82  A    between atoms: _240  and  _243
REMARK   83  A    between atoms: _243  and  _244
REMARK   84  A    between atoms: _249  and  _251
REMARK   85  A    between atoms: _251  and  _252
REMARK   86  A    between atoms: _251  and  _254
REMARK   87  A    between atoms: _254  and  _255
REMARK   88  A    between atoms: _258  and  _260
REMARK   89  A    between atoms: _260  and  _261
REMARK   90  A    between atoms: _264  and  _266
REMARK   91  A    between atoms: _266  and  _267
REMARK   92  A    between atoms: _270  and  _272
REMARK   93  A    between atoms: _272  and  _273
REMARK   94  A    between atoms: _276  and  _278
REMARK   95  A    between atoms: _278  and  _279
REMARK   96  A    between atoms: _278  and  _281
REMARK   97  A    between atoms: _281  and  _282
REMARK   98  A    between atoms: _284  and  _286
REMARK   99  A    between atoms: _286  and  _287
REMARK  100  A    between atoms: _286  and  _289
REMARK  101  A    between atoms: _289  and  _290
REMARK  102  A    between atoms: _293  and  _295
REMARK  103  A    between atoms: _295  and  _296
REMARK  104  A    between atoms: _299  and  _301
REMARK  105  A    between atoms: _301  and  _302
REMARK  106  A    between atoms: _301  and  _304
REMARK  107  A    between atoms: _307  and  _309
REMARK  108  A    between atoms: _309  and  _310
REMARK  109  A    between atoms: _309  and  _312
REMARK  110  A    between atoms: _312  and  _313
REMARK  111  A    between atoms: _316  and  _318
REMARK  112  A    between atoms: _318  and  _319
REMARK  113  A    between atoms: _321  and  _323
REMARK  114  A    between atoms: _323  and  _324
REMARK  115  A    between atoms: _326  and  _328
REMARK  116  A    between atoms: _328  and  _329
REMARK  117  A    between atoms: _328  and  _331
REMARK  118  A    between atoms: _331  and  _332
REMARK  119  A    between atoms: _334  and  _336
REMARK  120  A    between atoms: _336  and  _337
REMARK  121  A    between atoms: _336  and  _339
REMARK  122  A    between atoms: _339  and  _340
REMARK  123  A    between atoms: _343  and  _345
REMARK  124  A    between atoms: _345  and  _346
REMARK  125  A    between atoms: _345  and  _348
REMARK  126  A    between atoms: _348  and  _349
REMARK  127  A    between atoms: _352  and  _354
REMARK  128  A    between atoms: _354  and  _355
REMARK  129  A    between atoms: _354  and  _357
REMARK  130  A    between atoms: _357  and  _358
REMARK  131  A    between atoms: _364  and  _365
REMARK  132  A    between atoms: _371  and  _372
REMARK  133  A    between atoms: _377  and  _379
REMARK  134  A    between atoms: _379  and  _380
REMARK  135  A    between atoms: _379  and  _382
REMARK  136  A    between atoms: _382  and  _383
REMARK  137  A    between atoms: _386  and  _388
REMARK  138  A    between atoms: _388  and  _389
REMARK  139  A    between atoms: _388  and  _391
REMARK  140  A    between atoms: _391  and  _392
REMARK  141  A    between atoms: _397  and  _398
REMARK  142  A    between atoms: _400  and  _402
REMARK  143  A    between atoms: _402  and  _403
REMARK  144  A    between atoms: _402  and  _405
REMARK  145  A    between atoms: _405  and  _406
REMARK  146  A    between atoms: _408  and  _410
REMARK  147  A    between atoms: _410  and  _411
REMARK  148  A    between atoms: _410  and  _413
REMARK  149  A    between atoms: _416  and  _418
REMARK  150  A    between atoms: _418  and  _419
REMARK  151  A    between atoms: _418  and  _421
REMARK  152  A    between atoms: _421  and  _422
REMARK  153  A    between atoms: _432  and  _434
REMARK  154  A    between atoms: _434  and  _435
REMARK  155  A    between atoms: _434  and  _437
REMARK  156  A    between atoms: _437  and  _438
REMARK  157  A    between atoms: _443  and  _445
REMARK  158  A    between atoms: _445  and  _446
REMARK  159  A    between atoms: _445  and  _448
REMARK  160  A    between atoms: _448  and  _449
REMARK  161  A    between atoms: _449  and  _450
REMARK  162  A    between atoms: _450  and  _451
REMARK                            x       y       z     vdW  Elec       q    Type
REMARK                         _______ _______ _______ _____ _____    ______ ____
ROOT
ATOM      1  O   HOH     1      15.053  34.499  16.192  0.00  0.00    +0.000 OA
ENDROOT
TORSDOF 0
REMARK  Name = ../refined-set-2016/4wr7/4wr7_pocket.pdb
REMARK  162 active torsions:
REMARK  status: ('A' for Active; 'I' for Inactive)
REMARK    1  A    between atoms: _1  and  _3
REMARK    2  A    between atoms: _3  and  _4
REMARK    3  A    between atoms: _3  and  _6
REMARK    4  A    between atoms: _6  and  _7
REMARK    5  A    between atoms: _17  and  _19
REMARK    6  A    between atoms: _19  and  _20
REMARK    7  A    between atoms: _19  and  _22
REMARK    8  A    between atoms: _22  and  _23
REMARK    9  A    between atoms: _28  and  _29
REMARK   10  A    between atoms: _31  and  _33
REMARK   11  A    between atoms: _33  and  _34
REMARK   12  A    between atoms: _33  and  _36
REMARK   13  A    between atoms: _36  and  _37
REMARK   14  A    between atoms: _47  and  _49
REMARK   15  A    between atoms: _49  and  _50
REMARK   16  A    between atoms: _49  and  _52
REMARK   17  A    between atoms: _52  and  _53
REMARK   18  A    between atoms: _56  and  _57
REMARK   19  A    between atoms: _62  and  _64
REMARK   20  A    between atoms: _64  and  _65
REMARK   21  A    between atoms: _64  and  _67
REMARK   22  A    between atoms: _67  and  _68
REMARK   23  A    between atoms: _73  and  _75
REMARK   24  A    between atoms: _75  and  _76
REMARK   25  A    between atoms: _75  and  _78
REMARK   26  A    between atoms: _78  and  _79
REMARK   27  A    between atoms: _81  and  _83
REMARK   28  A    between atoms: _83  and  _84
REMARK   29  A    between atoms: _83  and  _86
REMARK   30  A    between atoms: _86  and  _87
REMARK   31  A    between atoms: _92  and  _94
REMARK   32  A    between atoms: _94  and  _95
REMARK   33  A    between atoms: _94  and  _97
REMARK   34  A    between atoms: _97  and  _98
REMARK   35  A    between atoms: _103  and  _105
REMARK   36  A    between atoms: _105  and  _106
REMARK   37  A    between atoms: _105  and  _108
REMARK   38  A    between atoms: _108  and  _109
REMARK   39  A    between atoms: _115  and  _117
REMARK   40  A    between atoms: _117  and  _118
REMARK   41  A    between atoms: _117  and  _120
REMARK   42  A    between atoms: _120  and  _121
REMARK   43  A    between atoms: _121  and  _122
REMARK   44  A    between atoms: _127  and  _129
REMARK   45  A    between atoms: _129  and  _130
REMARK   46  A    between atoms: _129  and  _132
REMARK   47  A    between atoms: _132  and  _133
REMARK   48  A    between atoms: _139  and  _141
REMARK   49  A    between atoms: _152  and  _155
REMARK   50  A    between atoms: _155  and  _156
REMARK   51  A    between atoms: _164  and  _165
REMARK   52  A    between atoms: _173  and  _175
REMARK   53  A    between atoms: _175  and  _176
REMARK   54  A    between atoms: _175  and  _178
REMARK   55  A    between atoms: _178  and  _179
REMARK   56  A    between atoms: _179  and  _180
REMARK   57  A    between atoms: _183  and  _185
REMARK   58  A    between atoms: _185  and  _186
REMARK   59  A    between atoms: _185  and  _188
REMARK   60  A    between atoms: _188  and  _189
REMARK   61  A    between atoms: _194  and  _196
REMARK   62  A    between atoms: _196  and  _197
REMARK   63  A    between atoms: _196  and  _199
REMARK   64  A    between atoms: _199  and  _200
REMARK   65  A    between atoms: _200  and  _201
REMARK   66  A    between atoms: _204  and  _206
REMARK   67  A    between atoms: _206  and  _207
REMARK   68  A    between atoms: _206  and  _209
REMARK   69  A    between atoms: _209  and  _210
REMARK   70  A    between atoms: _213  and  _215
REMARK   71  A    between atoms: _215  and  _216
REMARK   72  A    between atoms: _215  and  _218
REMARK   73  A    between atoms: _218  and  _219
REMARK   74  A    between atoms: _220  and  ZN_460
REMARK   75  A    between atoms: _224  and  _226
REMARK   76  A    between atoms: _226  and  _227
REMARK   77  A    between atoms: _226  and  _229
REMARK   78  A    between atoms: _232  and  _234
REMARK   79  A    between atoms: _234  and  _235
REMARK   80  A    between atoms: _238  and  _240
REMARK   81  A    between atoms: _240  and  _241
REMARK   82  A    between atoms: _240  and  _243
REMARK   83  A    between atoms: _243  and  _244
REMARK   84  A    between atoms: _249  and  _251
REMARK   85  A    between atoms: _251  and  _252
REMARK   86  A    between atoms: _251  and  _254
REMARK   87  A    between atoms: _254  and  _255
REMARK   88  A    between atoms: _258  and  _260
REMARK   89  A    between atoms: _260  and  _261
REMARK   90  A    between atoms: _264  and  _266
REMARK   91  A    between atoms: _266  and  _267
REMARK   92  A    between atoms: _270  and  _272
REMARK   93  A    between atoms: _272  and  _273
REMARK   94  A    between atoms: _276  and  _278
REMARK   95  A    between atoms: _278  and  _279
REMARK   96  A    between atoms: _278  and  _281
REMARK   97  A    between atoms: _281  and  _282
REMARK   98  A    between atoms: _284  and  _286
REMARK   99  A    between atoms: _286  and  _287
REMARK  100  A    between atoms: _286  and  _289
REMARK  101  A    between atoms: _289  and  _290
REMARK  102  A    between atoms: _293  and  _295
REMARK  103  A    between atoms: _295  and  _296
REMARK  104  A    between atoms: _299  and  _301
REMARK  105  A    between atoms: _301  and  _302
REMARK  106  A    between atoms: _301  and  _304
REMARK  107  A    between atoms: _307  and  _309
REMARK  108  A    between atoms: _309  and  _310
REMARK  109  A    between atoms: _309  and  _312
REMARK  110  A    between atoms: _312  and  _313
REMARK  111  A    between atoms: _316  and  _318
REMARK  112  A    between atoms: _318  and  _319
REMARK  113  A    between atoms: _321  and  _323
REMARK  114  A    between atoms: _323  and  _324
REMARK  115  A    between atoms: _326  and  _328
REMARK  116  A    between atoms: _328  and  _329
REMARK  117  A    between atoms: _328  and  _331
REMARK  118  A    between atoms: _331  and  _332
REMARK  119  A    between atoms: _334  and  _336
REMARK  120  A    between atoms: _336  and  _337
REMARK  121  A    between atoms: _336  and  _339
REMARK  122  A    between atoms: _339  and  _340
REMARK  123  A    between atoms: _343  and  _345
REMARK  124  A    between atoms: _345  and  _346
REMARK  125  A    between atoms: _345  and  _348
REMARK  126  A    between atoms: _348  and  _349
REMARK  127  A    between atoms: _352  and  _354
REMARK  128  A    between atoms: _354  and  _355
REMARK  129  A    between atoms: _354  and  _357
REMARK  130  A    between atoms: _357  and  _358
REMARK  131  A    between atoms: _364  and  _365
REMARK  132  A    between atoms: _371  and  _372
REMARK  133  A    between atoms: _377  and  _379
REMARK  134  A    between atoms: _379  and  _380
REMARK  135  A    between atoms: _379  and  _382
REMARK  136  A    between atoms: _382  and  _383
REMARK  137  A    between atoms: _386  and  _388
REMARK  138  A    between atoms: _388  and  _389
REMARK  139  A    between atoms: _388  and  _391
REMARK  140  A    between atoms: _391  and  _392
REMARK  141  A    between atoms: _397  and  _398
REMARK  142  A    between atoms: _400  and  _402
REMARK  143  A    between atoms: _402  and  _403
REMARK  144  A    between atoms: _402  and  _405
REMARK  145  A    between atoms: _405  and  _406
REMARK  146  A    between atoms: _408  and  _410
REMARK  147  A    between atoms: _410  and  _411
REMARK  148  A    between atoms: _410  and  _413
REMARK  149  A    between atoms: _416  and  _418
REMARK  150  A    between atoms: _418  and  _419
REMARK  151  A    between atoms: _418  and  _421
REMARK  152  A    between atoms: _421  and  _422
REMARK  153  A    between atoms: _432  and  _434
REMARK  154  A    between atoms: _434  and  _435
REMARK  155  A    between atoms: _434  and  _437
REMARK  156  A    between atoms: _437  and  _438
REMARK  157  A    between atoms: _443  and  _445
REMARK  158  A    between atoms: _445  and  _446
REMARK  159  A    between atoms: _445  and  _448
REMARK  160  A    between atoms: _448  and  _449
REMARK  161  A    between atoms: _449  and  _450
REMARK  162  A    between atoms: _450  and  _451
REMARK                            x       y       z     vdW  Elec       q    Type
REMARK                         _______ _______ _______ _____ _____    ______ ____
ROOT
ATOM      1  O   HOH     1      14.241  35.497  13.792  0.00  0.00    +0.000 OA
ENDROOT
TORSDOF 0
