REMARK  Name = ../refined-set-2016/3rm4/3rm4_pocket.pdb
REMARK  215 active torsions:
REMARK  status: ('A' for Active; 'I' for Inactive)
REMARK    1  A    between atoms: _1  and  _3
REMARK    2  A    between atoms: _3  and  _4
REMARK    3  A    between atoms: _3  and  _6
REMARK    4  A    between atoms: _6  and  _7
REMARK    5  A    between atoms: _12  and  _13
REMARK    6  A    between atoms: _15  and  _17
REMARK    7  A    between atoms: _17  and  _18
REMARK    8  A    between atoms: _17  and  _20
REMARK    9  A    between atoms: _20  and  _21
REMARK   10  A    between atoms: _24  and  _26
REMARK   11  A    between atoms: _26  and  _27
REMARK   12  A    between atoms: _26  and  _29
REMARK   13  A    between atoms: _29  and  _30
REMARK   14  A    between atoms: _40  and  _42
REMARK   15  A    between atoms: _42  and  _43
REMARK   16  A    between atoms: _42  and  _45
REMARK   17  A    between atoms: _45  and  _46
REMARK   18  A    between atoms: _46  and  _47
REMARK   19  A    between atoms: _47  and  _48
REMARK   20  A    between atoms: _57  and  _59
REMARK   21  A    between atoms: _59  and  _60
REMARK   22  A    between atoms: _59  and  _62
REMARK   23  A    between atoms: _62  and  _63
REMARK   24  A    between atoms: _66  and  _68
REMARK   25  A    between atoms: _68  and  _69
REMARK   26  A    between atoms: _72  and  _74
REMARK   27  A    between atoms: _74  and  _75
REMARK   28  A    between atoms: _74  and  _77
REMARK   29  A    between atoms: _77  and  _78
REMARK   30  A    between atoms: _84  and  _86
REMARK   31  A    between atoms: _86  and  _87
REMARK   32  A    between atoms: _90  and  _92
REMARK   33  A    between atoms: _92  and  _93
REMARK   34  A    between atoms: _92  and  _95
REMARK   35  A    between atoms: _95  and  _96
REMARK   36  A    between atoms: _99  and  _101
REMARK   37  A    between atoms: _101  and  _102
REMARK   38  A    between atoms: _104  and  _106
REMARK   39  A    between atoms: _106  and  _107
REMARK   40  A    between atoms: _109  and  _111
REMARK   41  A    between atoms: _111  and  _112
REMARK   42  A    between atoms: _111  and  _114
REMARK   43  A    between atoms: _114  and  _115
REMARK   44  A    between atoms: _125  and  _127
REMARK   45  A    between atoms: _127  and  _128
REMARK   46  A    between atoms: _127  and  _130
REMARK   47  A    between atoms: _130  and  _131
REMARK   48  A    between atoms: _136  and  _138
REMARK   49  A    between atoms: _138  and  _139
REMARK   50  A    between atoms: _138  and  _141
REMARK   51  A    between atoms: _141  and  _142
REMARK   52  A    between atoms: _145  and  _147
REMARK   53  A    between atoms: _147  and  _148
REMARK   54  A    between atoms: _147  and  _150
REMARK   55  A    between atoms: _150  and  _151
REMARK   56  A    between atoms: _157  and  _159
REMARK   57  A    between atoms: _159  and  _160
REMARK   58  A    between atoms: _159  and  _162
REMARK   59  A    between atoms: _162  and  _163
REMARK   60  A    between atoms: _166  and  _168
REMARK   61  A    between atoms: _168  and  _169
REMARK   62  A    between atoms: _168  and  _171
REMARK   63  A    between atoms: _171  and  _172
REMARK   64  A    between atoms: _182  and  _184
REMARK   65  A    between atoms: _184  and  _185
REMARK   66  A    between atoms: _184  and  _187
REMARK   67  A    between atoms: _187  and  _188
REMARK   68  A    between atoms: _188  and  _189
REMARK   69  A    between atoms: _192  and  _194
REMARK   70  A    between atoms: _194  and  _195
REMARK   71  A    between atoms: _194  and  _197
REMARK   72  A    between atoms: _197  and  _198
REMARK   73  A    between atoms: _203  and  _204
REMARK   74  A    between atoms: _206  and  _208
REMARK   75  A    between atoms: _208  and  _209
REMARK   76  A    between atoms: _208  and  _211
REMARK   77  A    between atoms: _211  and  _212
REMARK   78  A    between atoms: _212  and  _213
REMARK   79  A    between atoms: _213  and  _214
REMARK   80  A    between atoms: _223  and  _225
REMARK   81  A    between atoms: _225  and  _226
REMARK   82  A    between atoms: _229  and  _231
REMARK   83  A    between atoms: _231  and  _232
REMARK   84  A    between atoms: _235  and  _237
REMARK   85  A    between atoms: _237  and  _238
REMARK   86  A    between atoms: _237  and  _240
REMARK   87  A    between atoms: _243  and  _245
REMARK   88  A    between atoms: _245  and  _246
REMARK   89  A    between atoms: _245  and  _248
REMARK   90  A    between atoms: _248  and  _249
REMARK   91  A    between atoms: _254  and  _256
REMARK   92  A    between atoms: _256  and  _257
REMARK   93  A    between atoms: _256  and  _259
REMARK   94  A    between atoms: _262  and  _264
REMARK   95  A    between atoms: _264  and  _265
REMARK   96  A    between atoms: _264  and  _267
REMARK   97  A    between atoms: _267  and  _268
REMARK   98  A    between atoms: _268  and  _269
REMARK   99  A    between atoms: _271  and  _273
REMARK  100  A    between atoms: _273  and  _274
REMARK  101  A    between atoms: _273  and  _276
REMARK  102  A    between atoms: _276  and  _277
REMARK  103  A    between atoms: _280  and  _282
REMARK  104  A    between atoms: _282  and  _283
REMARK  105  A    between atoms: _282  and  _285
REMARK  106  A    between atoms: _285  and  _286
REMARK  107  A    between atoms: _291  and  _292
REMARK  108  A    between atoms: _294  and  _296
REMARK  109  A    between atoms: _296  and  _297
REMARK  110  A    between atoms: _296  and  _299
REMARK  111  A    between atoms: _299  and  _300
REMARK  112  A    between atoms: _303  and  _305
REMARK  113  A    between atoms: _305  and  _306
REMARK  114  A    between atoms: _305  and  _308
REMARK  115  A    between atoms: _308  and  _309
REMARK  116  A    between atoms: _319  and  _321
REMARK  117  A    between atoms: _321  and  _322
REMARK  118  A    between atoms: _321  and  _324
REMARK  119  A    between atoms: _324  and  _325
REMARK  120  A    between atoms: _330  and  _332
REMARK  121  A    between atoms: _332  and  _333
REMARK  122  A    between atoms: _335  and  _337
REMARK  123  A    between atoms: _337  and  _338
REMARK  124  A    between atoms: _337  and  _340
REMARK  125  A    between atoms: _340  and  _341
REMARK  126  A    between atoms: _348  and  _349
REMARK  127  A    between atoms: _354  and  _356
REMARK  128  A    between atoms: _356  and  _357
REMARK  129  A    between atoms: _356  and  _359
REMARK  130  A    between atoms: _359  and  _360
REMARK  131  A    between atoms: _363  and  _365
REMARK  132  A    between atoms: _365  and  _366
REMARK  133  A    between atoms: _365  and  _368
REMARK  134  A    between atoms: _368  and  _369
REMARK  135  A    between atoms: _374  and  _375
REMARK  136  A    between atoms: _377  and  _379
REMARK  137  A    between atoms: _379  and  _380
REMARK  138  A    between atoms: _382  and  _384
REMARK  139  A    between atoms: _384  and  _385
REMARK  140  A    between atoms: _384  and  _387
REMARK  141  A    between atoms: _387  and  _388
REMARK  142  A    between atoms: _393  and  _395
REMARK  143  A    between atoms: _395  and  _396
REMARK  144  A    between atoms: _398  and  _400
REMARK  145  A    between atoms: _400  and  _401
REMARK  146  A    between atoms: _400  and  _403
REMARK  147  A    between atoms: _403  and  _404
REMARK  148  A    between atoms: _409  and  _410
REMARK  149  A    between atoms: _412  and  _414
REMARK  150  A    between atoms: _414  and  _415
REMARK  151  A    between atoms: _418  and  _420
REMARK  152  A    between atoms: _420  and  _421
REMARK  153  A    between atoms: _420  and  _423
REMARK  154  A    between atoms: _423  and  _424
REMARK  155  A    between atoms: _424  and  _425
REMARK  156  A    between atoms: _425  and  _426
REMARK  157  A    between atoms: _426  and  _427
REMARK  158  A    between atoms: _431  and  _433
REMARK  159  A    between atoms: _433  and  _434
REMARK  160  A    between atoms: _433  and  _436
REMARK  161  A    between atoms: _436  and  _437
REMARK  162  A    between atoms: _437  and  _438
REMARK  163  A    between atoms: _441  and  _443
REMARK  164  A    between atoms: _443  and  _444
REMARK  165  A    between atoms: _443  and  _446
REMARK  166  A    between atoms: _446  and  _447
REMARK  167  A    between atoms: _449  and  _451
REMARK  168  A    between atoms: _451  and  _452
REMARK  169  A    between atoms: _454  and  _456
REMARK  170  A    between atoms: _456  and  _457
REMARK  171  A    between atoms: _456  and  _459
REMARK  172  A    between atoms: _459  and  _460
REMARK  173  A    between atoms: _463  and  _465
REMARK  174  A    between atoms: _465  and  _466
REMARK  175  A    between atoms: _465  and  _468
REMARK  176  A    between atoms: _468  and  _469
REMARK  177  A    between atoms: _479  and  _481
REMARK  178  A    between atoms: _481  and  _482
REMARK  179  A    between atoms: _485  and  _487
REMARK  180  A    between atoms: _487  and  _488
REMARK  181  A    between atoms: _487  and  _490
REMARK  182  A    between atoms: _490  and  _491
REMARK  183  A    between atoms: _496  and  _497
REMARK  184  A    between atoms: _499  and  _501
REMARK  185  A    between atoms: _501  and  _502
REMARK  186  A    between atoms: _501  and  _504
REMARK  187  A    between atoms: _504  and  _505
REMARK  188  A    between atoms: _510  and  _511
REMARK  189  A    between atoms: _513  and  _515
REMARK  190  A    between atoms: _515  and  _516
REMARK  191  A    between atoms: _515  and  _518
REMARK  192  A    between atoms: _518  and  _519
REMARK  193  A    between atoms: _519  and  _520
REMARK  194  A    between atoms: _523  and  _525
REMARK  195  A    between atoms: _525  and  _526
REMARK  196  A    between atoms: _525  and  _528
REMARK  197  A    between atoms: _528  and  _529
REMARK  198  A    between atoms: _529  and  _530
REMARK  199  A    between atoms: _532  and  _534
REMARK  200  A    between atoms: _534  and  _535
REMARK  201  A    between atoms: _534  and  _537
REMARK  202  A    between atoms: _540  and  _542
REMARK  203  A    between atoms: _542  and  _543
REMARK  204  A    between atoms: _542  and  _545
REMARK  205  A    between atoms: _545  and  _546
REMARK  206  A    between atoms: _556  and  _558
REMARK  207  A    between atoms: _558  and  _559
REMARK  208  A    between atoms: _562  and  _564
REMARK  209  A    between atoms: _564  and  _565
REMARK  210  A    between atoms: _564  and  _567
REMARK  211  A    between atoms: _567  and  _568
REMARK  212  A    between atoms: _571  and  _573
REMARK  213  A    between atoms: _573  and  _574
REMARK  214  A    between atoms: _573  and  _576
REMARK  215  A    between atoms: _576  and  _577
REMARK                            x       y       z     vdW  Elec       q    Type
REMARK                         _______ _______ _______ _____ _____    ______ ____
ROOT
ATOM      1  CG  TYR A   1      -6.662   3.601 -20.854  0.00  0.00    -0.020 A 
ATOM      2  CD2 TYR A   1      -7.162   2.747 -19.863  0.00  0.00    -0.001 A 
ATOM      3  CE2 TYR A   1      -7.253   1.360 -20.085  0.00  0.00    +0.036 A 
ATOM      4  CZ  TYR A   1      -6.844   0.833 -21.310  0.00  0.00    +0.134 A 
ATOM      5  CE1 TYR A   1      -6.335   1.658 -22.297  0.00  0.00    +0.036 A 
ATOM      6  CD1 TYR A   1      -6.245   3.039 -22.064  0.00  0.00    -0.001 A 
ENDROOT
BRANCH   4   7
ATOM      7  OH  TYR A   1      -6.935  -0.516 -21.556  0.00  0.00    -0.506 OA
ATOM      8  HH  TYR A   1      -7.315  -0.970 -20.763  0.00  0.00    +0.292 HD
ENDBRANCH   4   7
BRANCH   1   9
ATOM      9  CB  TYR A   1      -6.528   5.085 -20.601  0.00  0.00    +0.051 C 
BRANCH   9  10
ATOM     10  CA  TYR A   1      -7.648   5.953 -21.174  0.00  0.00    +0.137 C 
BRANCH  10  11
ATOM     11  N   TYR A   1      -7.522   6.079 -22.629  0.00  0.00    -0.239 NA
ATOM     12  H   TYR A   1      -6.598   5.922 -23.080  0.00  0.00    +0.142 HD
ENDBRANCH  10  11
BRANCH  10  13
ATOM     13  C   TYR A   1      -7.643   7.297 -20.458  0.00  0.00    +0.224 C 
ATOM     14  O   TYR A   1      -6.779   8.133 -20.704  0.00  0.00    -0.287 OA
ENDBRANCH  10  13
ENDBRANCH   9  10
ENDBRANCH   1   9
TORSDOF 5
REMARK  Name = ../refined-set-2016/3rm4/3rm4_pocket.pdb
REMARK  215 active torsions:
REMARK  status: ('A' for Active; 'I' for Inactive)
REMARK    1  A    between atoms: _1  and  _3
REMARK    2  A    between atoms: _3  and  _4
REMARK    3  A    between atoms: _3  and  _6
REMARK    4  A    between atoms: _6  and  _7
REMARK    5  A    between atoms: _12  and  _13
REMARK    6  A    between atoms: _15  and  _17
REMARK    7  A    between atoms: _17  and  _18
REMARK    8  A    between atoms: _17  and  _20
REMARK    9  A    between atoms: _20  and  _21
REMARK   10  A    between atoms: _24  and  _26
REMARK   11  A    between atoms: _26  and  _27
REMARK   12  A    between atoms: _26  and  _29
REMARK   13  A    between atoms: _29  and  _30
REMARK   14  A    between atoms: _40  and  _42
REMARK   15  A    between atoms: _42  and  _43
REMARK   16  A    between atoms: _42  and  _45
REMARK   17  A    between atoms: _45  and  _46
REMARK   18  A    between atoms: _46  and  _47
REMARK   19  A    between atoms: _47  and  _48
REMARK   20  A    between atoms: _57  and  _59
REMARK   21  A    between atoms: _59  and  _60
REMARK   22  A    between atoms: _59  and  _62
REMARK   23  A    between atoms: _62  and  _63
REMARK   24  A    between atoms: _66  and  _68
REMARK   25  A    between atoms: _68  and  _69
REMARK   26  A    between atoms: _72  and  _74
REMARK   27  A    between atoms: _74  and  _75
REMARK   28  A    between atoms: _74  and  _77
REMARK   29  A    between atoms: _77  and  _78
REMARK   30  A    between atoms: _84  and  _86
REMARK   31  A    between atoms: _86  and  _87
REMARK   32  A    between atoms: _90  and  _92
REMARK   33  A    between atoms: _92  and  _93
REMARK   34  A    between atoms: _92  and  _95
REMARK   35  A    between atoms: _95  and  _96
REMARK   36  A    between atoms: _99  and  _101
REMARK   37  A    between atoms: _101  and  _102
REMARK   38  A    between atoms: _104  and  _106
REMARK   39  A    between atoms: _106  and  _107
REMARK   40  A    between atoms: _109  and  _111
REMARK   41  A    between atoms: _111  and  _112
REMARK   42  A    between atoms: _111  and  _114
REMARK   43  A    between atoms: _114  and  _115
REMARK   44  A    between atoms: _125  and  _127
REMARK   45  A    between atoms: _127  and  _128
REMARK   46  A    between atoms: _127  and  _130
REMARK   47  A    between atoms: _130  and  _131
REMARK   48  A    between atoms: _136  and  _138
REMARK   49  A    between atoms: _138  and  _139
REMARK   50  A    between atoms: _138  and  _141
REMARK   51  A    between atoms: _141  and  _142
REMARK   52  A    between atoms: _145  and  _147
REMARK   53  A    between atoms: _147  and  _148
REMARK   54  A    between atoms: _147  and  _150
REMARK   55  A    between atoms: _150  and  _151
REMARK   56  A    between atoms: _157  and  _159
REMARK   57  A    between atoms: _159  and  _160
REMARK   58  A    between atoms: _159  and  _162
REMARK   59  A    between atoms: _162  and  _163
REMARK   60  A    between atoms: _166  and  _168
REMARK   61  A    between atoms: _168  and  _169
REMARK   62  A    between atoms: _168  and  _171
REMARK   63  A    between atoms: _171  and  _172
REMARK   64  A    between atoms: _182  and  _184
REMARK   65  A    between atoms: _184  and  _185
REMARK   66  A    between atoms: _184  and  _187
REMARK   67  A    between atoms: _187  and  _188
REMARK   68  A    between atoms: _188  and  _189
REMARK   69  A    between atoms: _192  and  _194
REMARK   70  A    between atoms: _194  and  _195
REMARK   71  A    between atoms: _194  and  _197
REMARK   72  A    between atoms: _197  and  _198
REMARK   73  A    between atoms: _203  and  _204
REMARK   74  A    between atoms: _206  and  _208
REMARK   75  A    between atoms: _208  and  _209
REMARK   76  A    between atoms: _208  and  _211
REMARK   77  A    between atoms: _211  and  _212
REMARK   78  A    between atoms: _212  and  _213
REMARK   79  A    between atoms: _213  and  _214
REMARK   80  A    between atoms: _223  and  _225
REMARK   81  A    between atoms: _225  and  _226
REMARK   82  A    between atoms: _229  and  _231
REMARK   83  A    between atoms: _231  and  _232
REMARK   84  A    between atoms: _235  and  _237
REMARK   85  A    between atoms: _237  and  _238
REMARK   86  A    between atoms: _237  and  _240
REMARK   87  A    between atoms: _243  and  _245
REMARK   88  A    between atoms: _245  and  _246
REMARK   89  A    between atoms: _245  and  _248
REMARK   90  A    between atoms: _248  and  _249
REMARK   91  A    between atoms: _254  and  _256
REMARK   92  A    between atoms: _256  and  _257
REMARK   93  A    between atoms: _256  and  _259
REMARK   94  A    between atoms: _262  and  _264
REMARK   95  A    between atoms: _264  and  _265
REMARK   96  A    between atoms: _264  and  _267
REMARK   97  A    between atoms: _267  and  _268
REMARK   98  A    between atoms: _268  and  _269
REMARK   99  A    between atoms: _271  and  _273
REMARK  100  A    between atoms: _273  and  _274
REMARK  101  A    between atoms: _273  and  _276
REMARK  102  A    between atoms: _276  and  _277
REMARK  103  A    between atoms: _280  and  _282
REMARK  104  A    between atoms: _282  and  _283
REMARK  105  A    between atoms: _282  and  _285
REMARK  106  A    between atoms: _285  and  _286
REMARK  107  A    between atoms: _291  and  _292
REMARK  108  A    between atoms: _294  and  _296
REMARK  109  A    between atoms: _296  and  _297
REMARK  110  A    between atoms: _296  and  _299
REMARK  111  A    between atoms: _299  and  _300
REMARK  112  A    between atoms: _303  and  _305
REMARK  113  A    between atoms: _305  and  _306
REMARK  114  A    between atoms: _305  and  _308
REMARK  115  A    between atoms: _308  and  _309
REMARK  116  A    between atoms: _319  and  _321
REMARK  117  A    between atoms: _321  and  _322
REMARK  118  A    between atoms: _321  and  _324
REMARK  119  A    between atoms: _324  and  _325
REMARK  120  A    between atoms: _330  and  _332
REMARK  121  A    between atoms: _332  and  _333
REMARK  122  A    between atoms: _335  and  _337
REMARK  123  A    between atoms: _337  and  _338
REMARK  124  A    between atoms: _337  and  _340
REMARK  125  A    between atoms: _340  and  _341
REMARK  126  A    between atoms: _348  and  _349
REMARK  127  A    between atoms: _354  and  _356
REMARK  128  A    between atoms: _356  and  _357
REMARK  129  A    between atoms: _356  and  _359
REMARK  130  A    between atoms: _359  and  _360
REMARK  131  A    between atoms: _363  and  _365
REMARK  132  A    between atoms: _365  and  _366
REMARK  133  A    between atoms: _365  and  _368
REMARK  134  A    between atoms: _368  and  _369
REMARK  135  A    between atoms: _374  and  _375
REMARK  136  A    between atoms: _377  and  _379
REMARK  137  A    between atoms: _379  and  _380
REMARK  138  A    between atoms: _382  and  _384
REMARK  139  A    between atoms: _384  and  _385
REMARK  140  A    between atoms: _384  and  _387
REMARK  141  A    between atoms: _387  and  _388
REMARK  142  A    between atoms: _393  and  _395
REMARK  143  A    between atoms: _395  and  _396
REMARK  144  A    between atoms: _398  and  _400
REMARK  145  A    between atoms: _400  and  _401
REMARK  146  A    between atoms: _400  and  _403
REMARK  147  A    between atoms: _403  and  _404
REMARK  148  A    between atoms: _409  and  _410
REMARK  149  A    between atoms: _412  and  _414
REMARK  150  A    between atoms: _414  and  _415
REMARK  151  A    between atoms: _418  and  _420
REMARK  152  A    between atoms: _420  and  _421
REMARK  153  A    between atoms: _420  and  _423
REMARK  154  A    between atoms: _423  and  _424
REMARK  155  A    between atoms: _424  and  _425
REMARK  156  A    between atoms: _425  and  _426
REMARK  157  A    between atoms: _426  and  _427
REMARK  158  A    between atoms: _431  and  _433
REMARK  159  A    between atoms: _433  and  _434
REMARK  160  A    between atoms: _433  and  _436
REMARK  161  A    between atoms: _436  and  _437
REMARK  162  A    between atoms: _437  and  _438
REMARK  163  A    between atoms: _441  and  _443
REMARK  164  A    between atoms: _443  and  _444
REMARK  165  A    between atoms: _443  and  _446
REMARK  166  A    between atoms: _446  and  _447
REMARK  167  A    between atoms: _449  and  _451
REMARK  168  A    between atoms: _451  and  _452
REMARK  169  A    between atoms: _454  and  _456
REMARK  170  A    between atoms: _456  and  _457
REMARK  171  A    between atoms: _456  and  _459
REMARK  172  A    between atoms: _459  and  _460
REMARK  173  A    between atoms: _463  and  _465
REMARK  174  A    between atoms: _465  and  _466
REMARK  175  A    between atoms: _465  and  _468
REMARK  176  A    between atoms: _468  and  _469
REMARK  177  A    between atoms: _479  and  _481
REMARK  178  A    between atoms: _481  and  _482
REMARK  179  A    between atoms: _485  and  _487
REMARK  180  A    between atoms: _487  and  _488
REMARK  181  A    between atoms: _487  and  _490
REMARK  182  A    between atoms: _490  and  _491
REMARK  183  A    between atoms: _496  and  _497
REMARK  184  A    between atoms: _499  and  _501
REMARK  185  A    between atoms: _501  and  _502
REMARK  186  A    between atoms: _501  and  _504
REMARK  187  A    between atoms: _504  and  _505
REMARK  188  A    between atoms: _510  and  _511
REMARK  189  A    between atoms: _513  and  _515
REMARK  190  A    between atoms: _515  and  _516
REMARK  191  A    between atoms: _515  and  _518
REMARK  192  A    between atoms: _518  and  _519
REMARK  193  A    between atoms: _519  and  _520
REMARK  194  A    between atoms: _523  and  _525
REMARK  195  A    between atoms: _525  and  _526
REMARK  196  A    between atoms: _525  and  _528
REMARK  197  A    between atoms: _528  and  _529
REMARK  198  A    between atoms: _529  and  _530
REMARK  199  A    between atoms: _532  and  _534
REMARK  200  A    between atoms: _534  and  _535
REMARK  201  A    between atoms: _534  and  _537
REMARK  202  A    between atoms: _540  and  _542
REMARK  203  A    between atoms: _542  and  _543
REMARK  204  A    between atoms: _542  and  _545
REMARK  205  A    between atoms: _545  and  _546
REMARK  206  A    between atoms: _556  and  _558
REMARK  207  A    between atoms: _558  and  _559
REMARK  208  A    between atoms: _562  and  _564
REMARK  209  A    between atoms: _564  and  _565
REMARK  210  A    between atoms: _564  and  _567
REMARK  211  A    between atoms: _567  and  _568
REMARK  212  A    between atoms: _571  and  _573
REMARK  213  A    between atoms: _573  and  _574
REMARK  214  A    between atoms: _573  and  _576
REMARK  215  A    between atoms: _576  and  _577
REMARK                            x       y       z     vdW  Elec       q    Type
REMARK                         _______ _______ _______ _____ _____    ______ ____
ROOT
ATOM      1  CA  THR A   1      -7.113   8.380 -15.137  0.00  0.00    +0.160 C 
ENDROOT
BRANCH   1   2
ATOM      2  N   THR A   1      -7.494   8.806 -16.490  0.00  0.00    -0.237 NA
ATOM      3  H   THR A   1      -7.128   9.703 -16.869  0.00  0.00    +0.142 HD
ENDBRANCH   1   2
BRANCH   1   4
ATOM      4  C   THR A   1      -7.756   9.264 -14.052  0.00  0.00    +0.227 C 
ATOM      5  O   THR A   1      -7.747  10.503 -14.151  0.00  0.00    -0.287 OA
ENDBRANCH   1   4
BRANCH   1   6
ATOM      6  CB  THR A   1      -5.555   8.224 -14.979  0.00  0.00    +0.134 C 
ATOM      7  CG2 THR A   1      -4.975   7.386 -16.111  0.00  0.00    +0.034 C 
BRANCH   6   8
ATOM      8  OG1 THR A   1      -4.907   9.501 -14.982  0.00  0.00    -0.383 OA
ATOM      9  HG1 THR A   1      -5.095   9.963 -15.837  0.00  0.00    +0.210 HD
ENDBRANCH   6   8
ENDBRANCH   1   6
TORSDOF 4
REMARK  Name = ../refined-set-2016/3rm4/3rm4_pocket.pdb
REMARK  215 active torsions:
REMARK  status: ('A' for Active; 'I' for Inactive)
REMARK    1  A    between atoms: _1  and  _3
REMARK    2  A    between atoms: _3  and  _4
REMARK    3  A    between atoms: _3  and  _6
REMARK    4  A    between atoms: _6  and  _7
REMARK    5  A    between atoms: _12  and  _13
REMARK    6  A    between atoms: _15  and  _17
REMARK    7  A    between atoms: _17  and  _18
REMARK    8  A    between atoms: _17  and  _20
REMARK    9  A    between atoms: _20  and  _21
REMARK   10  A    between atoms: _24  and  _26
REMARK   11  A    between atoms: _26  and  _27
REMARK   12  A    between atoms: _26  and  _29
REMARK   13  A    between atoms: _29  and  _30
REMARK   14  A    between atoms: _40  and  _42
REMARK   15  A    between atoms: _42  and  _43
REMARK   16  A    between atoms: _42  and  _45
REMARK   17  A    between atoms: _45  and  _46
REMARK   18  A    between atoms: _46  and  _47
REMARK   19  A    between atoms: _47  and  _48
REMARK   20  A    between atoms: _57  and  _59
REMARK   21  A    between atoms: _59  and  _60
REMARK   22  A    between atoms: _59  and  _62
REMARK   23  A    between atoms: _62  and  _63
REMARK   24  A    between atoms: _66  and  _68
REMARK   25  A    between atoms: _68  and  _69
REMARK   26  A    between atoms: _72  and  _74
REMARK   27  A    between atoms: _74  and  _75
REMARK   28  A    between atoms: _74  and  _77
REMARK   29  A    between atoms: _77  and  _78
REMARK   30  A    between atoms: _84  and  _86
REMARK   31  A    between atoms: _86  and  _87
REMARK   32  A    between atoms: _90  and  _92
REMARK   33  A    between atoms: _92  and  _93
REMARK   34  A    between atoms: _92  and  _95
REMARK   35  A    between atoms: _95  and  _96
REMARK   36  A    between atoms: _99  and  _101
REMARK   37  A    between atoms: _101  and  _102
REMARK   38  A    between atoms: _104  and  _106
REMARK   39  A    between atoms: _106  and  _107
REMARK   40  A    between atoms: _109  and  _111
REMARK   41  A    between atoms: _111  and  _112
REMARK   42  A    between atoms: _111  and  _114
REMARK   43  A    between atoms: _114  and  _115
REMARK   44  A    between atoms: _125  and  _127
REMARK   45  A    between atoms: _127  and  _128
REMARK   46  A    between atoms: _127  and  _130
REMARK   47  A    between atoms: _130  and  _131
REMARK   48  A    between atoms: _136  and  _138
REMARK   49  A    between atoms: _138  and  _139
REMARK   50  A    between atoms: _138  and  _141
REMARK   51  A    between atoms: _141  and  _142
REMARK   52  A    between atoms: _145  and  _147
REMARK   53  A    between atoms: _147  and  _148
REMARK   54  A    between atoms: _147  and  _150
REMARK   55  A    between atoms: _150  and  _151
REMARK   56  A    between atoms: _157  and  _159
REMARK   57  A    between atoms: _159  and  _160
REMARK   58  A    between atoms: _159  and  _162
REMARK   59  A    between atoms: _162  and  _163
REMARK   60  A    between atoms: _166  and  _168
REMARK   61  A    between atoms: _168  and  _169
REMARK   62  A    between atoms: _168  and  _171
REMARK   63  A    between atoms: _171  and  _172
REMARK   64  A    between atoms: _182  and  _184
REMARK   65  A    between atoms: _184  and  _185
REMARK   66  A    between atoms: _184  and  _187
REMARK   67  A    between atoms: _187  and  _188
REMARK   68  A    between atoms: _188  and  _189
REMARK   69  A    between atoms: _192  and  _194
REMARK   70  A    between atoms: _194  and  _195
REMARK   71  A    between atoms: _194  and  _197
REMARK   72  A    between atoms: _197  and  _198
REMARK   73  A    between atoms: _203  and  _204
REMARK   74  A    between atoms: _206  and  _208
REMARK   75  A    between atoms: _208  and  _209
REMARK   76  A    between atoms: _208  and  _211
REMARK   77  A    between atoms: _211  and  _212
REMARK   78  A    between atoms: _212  and  _213
REMARK   79  A    between atoms: _213  and  _214
REMARK   80  A    between atoms: _223  and  _225
REMARK   81  A    between atoms: _225  and  _226
REMARK   82  A    between atoms: _229  and  _231
REMARK   83  A    between atoms: _231  and  _232
REMARK   84  A    between atoms: _235  and  _237
REMARK   85  A    between atoms: _237  and  _238
REMARK   86  A    between atoms: _237  and  _240
REMARK   87  A    between atoms: _243  and  _245
REMARK   88  A    between atoms: _245  and  _246
REMARK   89  A    between atoms: _245  and  _248
REMARK   90  A    between atoms: _248  and  _249
REMARK   91  A    between atoms: _254  and  _256
REMARK   92  A    between atoms: _256  and  _257
REMARK   93  A    between atoms: _256  and  _259
REMARK   94  A    between atoms: _262  and  _264
REMARK   95  A    between atoms: _264  and  _265
REMARK   96  A    between atoms: _264  and  _267
REMARK   97  A    between atoms: _267  and  _268
REMARK   98  A    between atoms: _268  and  _269
REMARK   99  A    between atoms: _271  and  _273
REMARK  100  A    between atoms: _273  and  _274
REMARK  101  A    between atoms: _273  and  _276
REMARK  102  A    between atoms: _276  and  _277
REMARK  103  A    between atoms: _280  and  _282
REMARK  104  A    between atoms: _282  and  _283
REMARK  105  A    between atoms: _282  and  _285
REMARK  106  A    between atoms: _285  and  _286
REMARK  107  A    between atoms: _291  and  _292
REMARK  108  A    between atoms: _294  and  _296
REMARK  109  A    between atoms: _296  and  _297
REMARK  110  A    between atoms: _296  and  _299
REMARK  111  A    between atoms: _299  and  _300
REMARK  112  A    between atoms: _303  and  _305
REMARK  113  A    between atoms: _305  and  _306
REMARK  114  A    between atoms: _305  and  _308
REMARK  115  A    between atoms: _308  and  _309
REMARK  116  A    between atoms: _319  and  _321
REMARK  117  A    between atoms: _321  and  _322
REMARK  118  A    between atoms: _321  and  _324
REMARK  119  A    between atoms: _324  and  _325
REMARK  120  A    between atoms: _330  and  _332
REMARK  121  A    between atoms: _332  and  _333
REMARK  122  A    between atoms: _335  and  _337
REMARK  123  A    between atoms: _337  and  _338
REMARK  124  A    between atoms: _337  and  _340
REMARK  125  A    between atoms: _340  and  _341
REMARK  126  A    between atoms: _348  and  _349
REMARK  127  A    between atoms: _354  and  _356
REMARK  128  A    between atoms: _356  and  _357
REMARK  129  A    between atoms: _356  and  _359
REMARK  130  A    between atoms: _359  and  _360
REMARK  131  A    between atoms: _363  and  _365
REMARK  132  A    between atoms: _365  and  _366
REMARK  133  A    between atoms: _365  and  _368
REMARK  134  A    between atoms: _368  and  _369
REMARK  135  A    between atoms: _374  and  _375
REMARK  136  A    between atoms: _377  and  _379
REMARK  137  A    between atoms: _379  and  _380
REMARK  138  A    between atoms: _382  and  _384
REMARK  139  A    between atoms: _384  and  _385
REMARK  140  A    between atoms: _384  and  _387
REMARK  141  A    between atoms: _387  and  _388
REMARK  142  A    between atoms: _393  and  _395
REMARK  143  A    between atoms: _395  and  _396
REMARK  144  A    between atoms: _398  and  _400
REMARK  145  A    between atoms: _400  and  _401
REMARK  146  A    between atoms: _400  and  _403
REMARK  147  A    between atoms: _403  and  _404
REMARK  148  A    between atoms: _409  and  _410
REMARK  149  A    between atoms: _412  and  _414
REMARK  150  A    between atoms: _414  and  _415
REMARK  151  A    between atoms: _418  and  _420
REMARK  152  A    between atoms: _420  and  _421
REMARK  153  A    between atoms: _420  and  _423
REMARK  154  A    between atoms: _423  and  _424
REMARK  155  A    between atoms: _424  and  _425
REMARK  156  A    between atoms: _425  and  _426
REMARK  157  A    between atoms: _426  and  _427
REMARK  158  A    between atoms: _431  and  _433
REMARK  159  A    between atoms: _433  and  _434
REMARK  160  A    between atoms: _433  and  _436
REMARK  161  A    between atoms: _436  and  _437
REMARK  162  A    between atoms: _437  and  _438
REMARK  163  A    between atoms: _441  and  _443
REMARK  164  A    between atoms: _443  and  _444
REMARK  165  A    between atoms: _443  and  _446
REMARK  166  A    between atoms: _446  and  _447
REMARK  167  A    between atoms: _449  and  _451
REMARK  168  A    between atoms: _451  and  _452
REMARK  169  A    between atoms: _454  and  _456
REMARK  170  A    between atoms: _456  and  _457
REMARK  171  A    between atoms: _456  and  _459
REMARK  172  A    between atoms: _459  and  _460
REMARK  173  A    between atoms: _463  and  _465
REMARK  174  A    between atoms: _465  and  _466
REMARK  175  A    between atoms: _465  and  _468
REMARK  176  A    between atoms: _468  and  _469
REMARK  177  A    between atoms: _479  and  _481
REMARK  178  A    between atoms: _481  and  _482
REMARK  179  A    between atoms: _485  and  _487
REMARK  180  A    between atoms: _487  and  _488
REMARK  181  A    between atoms: _487  and  _490
REMARK  182  A    between atoms: _490  and  _491
REMARK  183  A    between atoms: _496  and  _497
REMARK  184  A    between atoms: _499  and  _501
REMARK  185  A    between atoms: _501  and  _502
REMARK  186  A    between atoms: _501  and  _504
REMARK  187  A    between atoms: _504  and  _505
REMARK  188  A    between atoms: _510  and  _511
REMARK  189  A    between atoms: _513  and  _515
REMARK  190  A    between atoms: _515  and  _516
REMARK  191  A    between atoms: _515  and  _518
REMARK  192  A    between atoms: _518  and  _519
REMARK  193  A    between atoms: _519  and  _520
REMARK  194  A    between atoms: _523  and  _525
REMARK  195  A    between atoms: _525  and  _526
REMARK  196  A    between atoms: _525  and  _528
REMARK  197  A    between atoms: _528  and  _529
REMARK  198  A    between atoms: _529  and  _530
REMARK  199  A    between atoms: _532  and  _534
REMARK  200  A    between atoms: _534  and  _535
REMARK  201  A    between atoms: _534  and  _537
REMARK  202  A    between atoms: _540  and  _542
REMARK  203  A    between atoms: _542  and  _543
REMARK  204  A    between atoms: _542  and  _545
REMARK  205  A    between atoms: _545  and  _546
REMARK  206  A    between atoms: _556  and  _558
REMARK  207  A    between atoms: _558  and  _559
REMARK  208  A    between atoms: _562  and  _564
REMARK  209  A    between atoms: _564  and  _565
REMARK  210  A    between atoms: _564  and  _567
REMARK  211  A    between atoms: _567  and  _568
REMARK  212  A    between atoms: _571  and  _573
REMARK  213  A    between atoms: _573  and  _574
REMARK  214  A    between atoms: _573  and  _576
REMARK  215  A    between atoms: _576  and  _577
REMARK                            x       y       z     vdW  Elec       q    Type
REMARK                         _______ _______ _______ _____ _____    ______ ____
ROOT
ATOM      1  CG  TRP A   1      -4.024   9.006 -10.616  0.00  0.00    -0.002 A 
ATOM      2  CD1 TRP A   1      -2.805   9.470 -11.045  0.00  0.00    +0.068 A 
ATOM      3  NE1 TRP A   1      -2.292   8.626 -12.006  0.00  0.00    -0.352 N 
ATOM      4  CE2 TRP A   1      -3.178   7.600 -12.213  0.00  0.00    +0.056 A 
ATOM      5  CZ2 TRP A   1      -3.097   6.499 -13.078  0.00  0.00    +0.017 A 
ATOM      6  CH2 TRP A   1      -4.145   5.610 -13.075  0.00  0.00    +0.001 A 
ATOM      7  CZ3 TRP A   1      -5.255   5.786 -12.229  0.00  0.00    +0.000 A 
ATOM      8  CE3 TRP A   1      -5.332   6.879 -11.362  0.00  0.00    +0.001 A 
ATOM      9  HE1 TRP A   1      -1.382   8.747 -12.494  0.00  0.00    +0.166 HD
ATOM     10  CD2 TRP A   1      -4.275   7.803 -11.347  0.00  0.00    +0.013 A 
ENDROOT
BRANCH   1  11
ATOM     11  CB  TRP A   1      -4.910   9.618  -9.582  0.00  0.00    +0.053 C 
BRANCH  11  12
ATOM     12  CA  TRP A   1      -5.990  10.565 -10.131  0.00  0.00    +0.137 C 
BRANCH  12  13
ATOM     13  N   TRP A   1      -6.896   9.878 -11.035  0.00  0.00    -0.239 NA
ATOM     14  H   TRP A   1      -6.507   9.326 -11.825  0.00  0.00    +0.142 HD
ENDBRANCH  12  13
BRANCH  12  15
ATOM     15  C   TRP A   1      -5.378  11.797 -10.793  0.00  0.00    +0.224 C 
ATOM     16  O   TRP A   1      -4.705  12.588 -10.130  0.00  0.00    -0.287 OA
ENDBRANCH  12  15
ENDBRANCH  11  12
ENDBRANCH   1  11
TORSDOF 4
REMARK  Name = ../refined-set-2016/3rm4/3rm4_pocket.pdb
REMARK  215 active torsions:
REMARK  status: ('A' for Active; 'I' for Inactive)
REMARK    1  A    between atoms: _1  and  _3
REMARK    2  A    between atoms: _3  and  _4
REMARK    3  A    between atoms: _3  and  _6
REMARK    4  A    between atoms: _6  and  _7
REMARK    5  A    between atoms: _12  and  _13
REMARK    6  A    between atoms: _15  and  _17
REMARK    7  A    between atoms: _17  and  _18
REMARK    8  A    between atoms: _17  and  _20
REMARK    9  A    between atoms: _20  and  _21
REMARK   10  A    between atoms: _24  and  _26
REMARK   11  A    between atoms: _26  and  _27
REMARK   12  A    between atoms: _26  and  _29
REMARK   13  A    between atoms: _29  and  _30
REMARK   14  A    between atoms: _40  and  _42
REMARK   15  A    between atoms: _42  and  _43
REMARK   16  A    between atoms: _42  and  _45
REMARK   17  A    between atoms: _45  and  _46
REMARK   18  A    between atoms: _46  and  _47
REMARK   19  A    between atoms: _47  and  _48
REMARK   20  A    between atoms: _57  and  _59
REMARK   21  A    between atoms: _59  and  _60
REMARK   22  A    between atoms: _59  and  _62
REMARK   23  A    between atoms: _62  and  _63
REMARK   24  A    between atoms: _66  and  _68
REMARK   25  A    between atoms: _68  and  _69
REMARK   26  A    between atoms: _72  and  _74
REMARK   27  A    between atoms: _74  and  _75
REMARK   28  A    between atoms: _74  and  _77
REMARK   29  A    between atoms: _77  and  _78
REMARK   30  A    between atoms: _84  and  _86
REMARK   31  A    between atoms: _86  and  _87
REMARK   32  A    between atoms: _90  and  _92
REMARK   33  A    between atoms: _92  and  _93
REMARK   34  A    between atoms: _92  and  _95
REMARK   35  A    between atoms: _95  and  _96
REMARK   36  A    between atoms: _99  and  _101
REMARK   37  A    between atoms: _101  and  _102
REMARK   38  A    between atoms: _104  and  _106
REMARK   39  A    between atoms: _106  and  _107
REMARK   40  A    between atoms: _109  and  _111
REMARK   41  A    between atoms: _111  and  _112
REMARK   42  A    between atoms: _111  and  _114
REMARK   43  A    between atoms: _114  and  _115
REMARK   44  A    between atoms: _125  and  _127
REMARK   45  A    between atoms: _127  and  _128
REMARK   46  A    between atoms: _127  and  _130
REMARK   47  A    between atoms: _130  and  _131
REMARK   48  A    between atoms: _136  and  _138
REMARK   49  A    between atoms: _138  and  _139
REMARK   50  A    between atoms: _138  and  _141
REMARK   51  A    between atoms: _141  and  _142
REMARK   52  A    between atoms: _145  and  _147
REMARK   53  A    between atoms: _147  and  _148
REMARK   54  A    between atoms: _147  and  _150
REMARK   55  A    between atoms: _150  and  _151
REMARK   56  A    between atoms: _157  and  _159
REMARK   57  A    between atoms: _159  and  _160
REMARK   58  A    between atoms: _159  and  _162
REMARK   59  A    between atoms: _162  and  _163
REMARK   60  A    between atoms: _166  and  _168
REMARK   61  A    between atoms: _168  and  _169
REMARK   62  A    between atoms: _168  and  _171
REMARK   63  A    between atoms: _171  and  _172
REMARK   64  A    between atoms: _182  and  _184
REMARK   65  A    between atoms: _184  and  _185
REMARK   66  A    between atoms: _184  and  _187
REMARK   67  A    between atoms: _187  and  _188
REMARK   68  A    between atoms: _188  and  _189
REMARK   69  A    between atoms: _192  and  _194
REMARK   70  A    between atoms: _194  and  _195
REMARK   71  A    between atoms: _194  and  _197
REMARK   72  A    between atoms: _197  and  _198
REMARK   73  A    between atoms: _203  and  _204
REMARK   74  A    between atoms: _206  and  _208
REMARK   75  A    between atoms: _208  and  _209
REMARK   76  A    between atoms: _208  and  _211
REMARK   77  A    between atoms: _211  and  _212
REMARK   78  A    between atoms: _212  and  _213
REMARK   79  A    between atoms: _213  and  _214
REMARK   80  A    between atoms: _223  and  _225
REMARK   81  A    between atoms: _225  and  _226
REMARK   82  A    between atoms: _229  and  _231
REMARK   83  A    between atoms: _231  and  _232
REMARK   84  A    between atoms: _235  and  _237
REMARK   85  A    between atoms: _237  and  _238
REMARK   86  A    between atoms: _237  and  _240
REMARK   87  A    between atoms: _243  and  _245
REMARK   88  A    between atoms: _245  and  _246
REMARK   89  A    between atoms: _245  and  _248
REMARK   90  A    between atoms: _248  and  _249
REMARK   91  A    between atoms: _254  and  _256
REMARK   92  A    between atoms: _256  and  _257
REMARK   93  A    between atoms: _256  and  _259
REMARK   94  A    between atoms: _262  and  _264
REMARK   95  A    between atoms: _264  and  _265
REMARK   96  A    between atoms: _264  and  _267
REMARK   97  A    between atoms: _267  and  _268
REMARK   98  A    between atoms: _268  and  _269
REMARK   99  A    between atoms: _271  and  _273
REMARK  100  A    between atoms: _273  and  _274
REMARK  101  A    between atoms: _273  and  _276
REMARK  102  A    between atoms: _276  and  _277
REMARK  103  A    between atoms: _280  and  _282
REMARK  104  A    between atoms: _282  and  _283
REMARK  105  A    between atoms: _282  and  _285
REMARK  106  A    between atoms: _285  and  _286
REMARK  107  A    between atoms: _291  and  _292
REMARK  108  A    between atoms: _294  and  _296
REMARK  109  A    between atoms: _296  and  _297
REMARK  110  A    between atoms: _296  and  _299
REMARK  111  A    between atoms: _299  and  _300
REMARK  112  A    between atoms: _303  and  _305
REMARK  113  A    between atoms: _305  and  _306
REMARK  114  A    between atoms: _305  and  _308
REMARK  115  A    between atoms: _308  and  _309
REMARK  116  A    between atoms: _319  and  _321
REMARK  117  A    between atoms: _321  and  _322
REMARK  118  A    between atoms: _321  and  _324
REMARK  119  A    between atoms: _324  and  _325
REMARK  120  A    between atoms: _330  and  _332
REMARK  121  A    between atoms: _332  and  _333
REMARK  122  A    between atoms: _335  and  _337
REMARK  123  A    between atoms: _337  and  _338
REMARK  124  A    between atoms: _337  and  _340
REMARK  125  A    between atoms: _340  and  _341
REMARK  126  A    between atoms: _348  and  _349
REMARK  127  A    between atoms: _354  and  _356
REMARK  128  A    between atoms: _356  and  _357
REMARK  129  A    between atoms: _356  and  _359
REMARK  130  A    between atoms: _359  and  _360
REMARK  131  A    between atoms: _363  and  _365
REMARK  132  A    between atoms: _365  and  _366
REMARK  133  A    between atoms: _365  and  _368
REMARK  134  A    between atoms: _368  and  _369
REMARK  135  A    between atoms: _374  and  _375
REMARK  136  A    between atoms: _377  and  _379
REMARK  137  A    between atoms: _379  and  _380
REMARK  138  A    between atoms: _382  and  _384
REMARK  139  A    between atoms: _384  and  _385
REMARK  140  A    between atoms: _384  and  _387
REMARK  141  A    between atoms: _387  and  _388
REMARK  142  A    between atoms: _393  and  _395
REMARK  143  A    between atoms: _395  and  _396
REMARK  144  A    between atoms: _398  and  _400
REMARK  145  A    between atoms: _400  and  _401
REMARK  146  A    between atoms: _400  and  _403
REMARK  147  A    between atoms: _403  and  _404
REMARK  148  A    between atoms: _409  and  _410
REMARK  149  A    between atoms: _412  and  _414
REMARK  150  A    between atoms: _414  and  _415
REMARK  151  A    between atoms: _418  and  _420
REMARK  152  A    between atoms: _420  and  _421
REMARK  153  A    between atoms: _420  and  _423
REMARK  154  A    between atoms: _423  and  _424
REMARK  155  A    between atoms: _424  and  _425
REMARK  156  A    between atoms: _425  and  _426
REMARK  157  A    between atoms: _426  and  _427
REMARK  158  A    between atoms: _431  and  _433
REMARK  159  A    between atoms: _433  and  _434
REMARK  160  A    between atoms: _433  and  _436
REMARK  161  A    between atoms: _436  and  _437
REMARK  162  A    between atoms: _437  and  _438
REMARK  163  A    between atoms: _441  and  _443
REMARK  164  A    between atoms: _443  and  _444
REMARK  165  A    between atoms: _443  and  _446
REMARK  166  A    between atoms: _446  and  _447
REMARK  167  A    between atoms: _449  and  _451
REMARK  168  A    between atoms: _451  and  _452
REMARK  169  A    between atoms: _454  and  _456
REMARK  170  A    between atoms: _456  and  _457
REMARK  171  A    between atoms: _456  and  _459
REMARK  172  A    between atoms: _459  and  _460
REMARK  173  A    between atoms: _463  and  _465
REMARK  174  A    between atoms: _465  and  _466
REMARK  175  A    between atoms: _465  and  _468
REMARK  176  A    between atoms: _468  and  _469
REMARK  177  A    between atoms: _479  and  _481
REMARK  178  A    between atoms: _481  and  _482
REMARK  179  A    between atoms: _485  and  _487
REMARK  180  A    between atoms: _487  and  _488
REMARK  181  A    between atoms: _487  and  _490
REMARK  182  A    between atoms: _490  and  _491
REMARK  183  A    between atoms: _496  and  _497
REMARK  184  A    between atoms: _499  and  _501
REMARK  185  A    between atoms: _501  and  _502
REMARK  186  A    between atoms: _501  and  _504
REMARK  187  A    between atoms: _504  and  _505
REMARK  188  A    between atoms: _510  and  _511
REMARK  189  A    between atoms: _513  and  _515
REMARK  190  A    between atoms: _515  and  _516
REMARK  191  A    between atoms: _515  and  _518
REMARK  192  A    between atoms: _518  and  _519
REMARK  193  A    between atoms: _519  and  _520
REMARK  194  A    between atoms: _523  and  _525
REMARK  195  A    between atoms: _525  and  _526
REMARK  196  A    between atoms: _525  and  _528
REMARK  197  A    between atoms: _528  and  _529
REMARK  198  A    between atoms: _529  and  _530
REMARK  199  A    between atoms: _532  and  _534
REMARK  200  A    between atoms: _534  and  _535
REMARK  201  A    between atoms: _534  and  _537
REMARK  202  A    between atoms: _540  and  _542
REMARK  203  A    between atoms: _542  and  _543
REMARK  204  A    between atoms: _542  and  _545
REMARK  205  A    between atoms: _545  and  _546
REMARK  206  A    between atoms: _556  and  _558
REMARK  207  A    between atoms: _558  and  _559
REMARK  208  A    between atoms: _562  and  _564
REMARK  209  A    between atoms: _564  and  _565
REMARK  210  A    between atoms: _564  and  _567
REMARK  211  A    between atoms: _567  and  _568
REMARK  212  A    between atoms: _571  and  _573
REMARK  213  A    between atoms: _573  and  _574
REMARK  214  A    between atoms: _573  and  _576
REMARK  215  A    between atoms: _576  and  _577
REMARK                            x       y       z     vdW  Elec       q    Type
REMARK                         _______ _______ _______ _____ _____    ______ ____
ROOT
ATOM      1  NE  ARG A   1      -0.770  13.489 -13.362  0.00  0.00    -0.265 N 
ATOM      2  HE  ARG A   1      -0.134  13.109 -12.632  0.00  0.00    +0.259 HD
ATOM      3  CZ  ARG A   1      -1.278  12.623 -14.236  0.00  0.00    +0.342 C 
ATOM      4  NH2 ARG A   1      -0.964  11.340 -14.130  0.00  0.00    -0.292 N 
ATOM      5 HH21 ARG A   1      -0.328  11.021 -13.371  0.00  0.00    +0.255 HD
ATOM      6 HH22 ARG A   1      -1.353  10.652 -14.806  0.00  0.00    +0.255 HD
ATOM      7  NH1 ARG A   1      -2.059  13.030 -15.234  0.00  0.00    -0.292 N 
ATOM      8 HH11 ARG A   1      -2.282  14.040 -15.341  0.00  0.00    +0.255 HD
ATOM      9 HH12 ARG A   1      -2.446  12.338 -15.907  0.00  0.00    +0.255 HD
ENDROOT
BRANCH   1  10
ATOM     10  CD  ARG A   1      -1.030  14.933 -13.339  0.00  0.00    +0.174 C 
BRANCH  10  11
ATOM     11  CG  ARG A   1      -1.438  15.374 -11.939  0.00  0.00    +0.045 C 
BRANCH  11  12
ATOM     12  CB  ARG A   1      -1.751  16.869 -11.828  0.00  0.00    +0.029 C 
BRANCH  12  13
ATOM     13  CA  ARG A   1      -2.071  17.291 -10.385  0.00  0.00    +0.133 C 
BRANCH  13  14
ATOM     14  N   ARG A   1      -3.260  16.612  -9.884  0.00  0.00    -0.239 NA
ATOM     15  H   ARG A   1      -3.893  16.125 -10.550  0.00  0.00    +0.142 HD
ENDBRANCH  13  14
BRANCH  13  16
ATOM     16  C   ARG A   1      -2.249  18.810 -10.242  0.00  0.00    +0.224 C 
ATOM     17  O   ARG A   1      -3.347  19.326 -10.432  0.00  0.00    -0.287 OA
ENDBRANCH  13  16
ENDBRANCH  12  13
ENDBRANCH  11  12
ENDBRANCH  10  11
ENDBRANCH   1  10
TORSDOF 6
REMARK  Name = ../refined-set-2016/3rm4/3rm4_pocket.pdb
REMARK  215 active torsions:
REMARK  status: ('A' for Active; 'I' for Inactive)
REMARK    1  A    between atoms: _1  and  _3
REMARK    2  A    between atoms: _3  and  _4
REMARK    3  A    between atoms: _3  and  _6
REMARK    4  A    between atoms: _6  and  _7
REMARK    5  A    between atoms: _12  and  _13
REMARK    6  A    between atoms: _15  and  _17
REMARK    7  A    between atoms: _17  and  _18
REMARK    8  A    between atoms: _17  and  _20
REMARK    9  A    between atoms: _20  and  _21
REMARK   10  A    between atoms: _24  and  _26
REMARK   11  A    between atoms: _26  and  _27
REMARK   12  A    between atoms: _26  and  _29
REMARK   13  A    between atoms: _29  and  _30
REMARK   14  A    between atoms: _40  and  _42
REMARK   15  A    between atoms: _42  and  _43
REMARK   16  A    between atoms: _42  and  _45
REMARK   17  A    between atoms: _45  and  _46
REMARK   18  A    between atoms: _46  and  _47
REMARK   19  A    between atoms: _47  and  _48
REMARK   20  A    between atoms: _57  and  _59
REMARK   21  A    between atoms: _59  and  _60
REMARK   22  A    between atoms: _59  and  _62
REMARK   23  A    between atoms: _62  and  _63
REMARK   24  A    between atoms: _66  and  _68
REMARK   25  A    between atoms: _68  and  _69
REMARK   26  A    between atoms: _72  and  _74
REMARK   27  A    between atoms: _74  and  _75
REMARK   28  A    between atoms: _74  and  _77
REMARK   29  A    between atoms: _77  and  _78
REMARK   30  A    between atoms: _84  and  _86
REMARK   31  A    between atoms: _86  and  _87
REMARK   32  A    between atoms: _90  and  _92
REMARK   33  A    between atoms: _92  and  _93
REMARK   34  A    between atoms: _92  and  _95
REMARK   35  A    between atoms: _95  and  _96
REMARK   36  A    between atoms: _99  and  _101
REMARK   37  A    between atoms: _101  and  _102
REMARK   38  A    between atoms: _104  and  _106
REMARK   39  A    between atoms: _106  and  _107
REMARK   40  A    between atoms: _109  and  _111
REMARK   41  A    between atoms: _111  and  _112
REMARK   42  A    between atoms: _111  and  _114
REMARK   43  A    between atoms: _114  and  _115
REMARK   44  A    between atoms: _125  and  _127
REMARK   45  A    between atoms: _127  and  _128
REMARK   46  A    between atoms: _127  and  _130
REMARK   47  A    between atoms: _130  and  _131
REMARK   48  A    between atoms: _136  and  _138
REMARK   49  A    between atoms: _138  and  _139
REMARK   50  A    between atoms: _138  and  _141
REMARK   51  A    between atoms: _141  and  _142
REMARK   52  A    between atoms: _145  and  _147
REMARK   53  A    between atoms: _147  and  _148
REMARK   54  A    between atoms: _147  and  _150
REMARK   55  A    between atoms: _150  and  _151
REMARK   56  A    between atoms: _157  and  _159
REMARK   57  A    between atoms: _159  and  _160
REMARK   58  A    between atoms: _159  and  _162
REMARK   59  A    between atoms: _162  and  _163
REMARK   60  A    between atoms: _166  and  _168
REMARK   61  A    between atoms: _168  and  _169
REMARK   62  A    between atoms: _168  and  _171
REMARK   63  A    between atoms: _171  and  _172
REMARK   64  A    between atoms: _182  and  _184
REMARK   65  A    between atoms: _184  and  _185
REMARK   66  A    between atoms: _184  and  _187
REMARK   67  A    between atoms: _187  and  _188
REMARK   68  A    between atoms: _188  and  _189
REMARK   69  A    between atoms: _192  and  _194
REMARK   70  A    between atoms: _194  and  _195
REMARK   71  A    between atoms: _194  and  _197
REMARK   72  A    between atoms: _197  and  _198
REMARK   73  A    between atoms: _203  and  _204
REMARK   74  A    between atoms: _206  and  _208
REMARK   75  A    between atoms: _208  and  _209
REMARK   76  A    between atoms: _208  and  _211
REMARK   77  A    between atoms: _211  and  _212
REMARK   78  A    between atoms: _212  and  _213
REMARK   79  A    between atoms: _213  and  _214
REMARK   80  A    between atoms: _223  and  _225
REMARK   81  A    between atoms: _225  and  _226
REMARK   82  A    between atoms: _229  and  _231
REMARK   83  A    between atoms: _231  and  _232
REMARK   84  A    between atoms: _235  and  _237
REMARK   85  A    between atoms: _237  and  _238
REMARK   86  A    between atoms: _237  and  _240
REMARK   87  A    between atoms: _243  and  _245
REMARK   88  A    between atoms: _245  and  _246
REMARK   89  A    between atoms: _245  and  _248
REMARK   90  A    between atoms: _248  and  _249
REMARK   91  A    between atoms: _254  and  _256
REMARK   92  A    between atoms: _256  and  _257
REMARK   93  A    between atoms: _256  and  _259
REMARK   94  A    between atoms: _262  and  _264
REMARK   95  A    between atoms: _264  and  _265
REMARK   96  A    between atoms: _264  and  _267
REMARK   97  A    between atoms: _267  and  _268
REMARK   98  A    between atoms: _268  and  _269
REMARK   99  A    between atoms: _271  and  _273
REMARK  100  A    between atoms: _273  and  _274
REMARK  101  A    between atoms: _273  and  _276
REMARK  102  A    between atoms: _276  and  _277
REMARK  103  A    between atoms: _280  and  _282
REMARK  104  A    between atoms: _282  and  _283
REMARK  105  A    between atoms: _282  and  _285
REMARK  106  A    between atoms: _285  and  _286
REMARK  107  A    between atoms: _291  and  _292
REMARK  108  A    between atoms: _294  and  _296
REMARK  109  A    between atoms: _296  and  _297
REMARK  110  A    between atoms: _296  and  _299
REMARK  111  A    between atoms: _299  and  _300
REMARK  112  A    between atoms: _303  and  _305
REMARK  113  A    between atoms: _305  and  _306
REMARK  114  A    between atoms: _305  and  _308
REMARK  115  A    between atoms: _308  and  _309
REMARK  116  A    between atoms: _319  and  _321
REMARK  117  A    between atoms: _321  and  _322
REMARK  118  A    between atoms: _321  and  _324
REMARK  119  A    between atoms: _324  and  _325
REMARK  120  A    between atoms: _330  and  _332
REMARK  121  A    between atoms: _332  and  _333
REMARK  122  A    between atoms: _335  and  _337
REMARK  123  A    between atoms: _337  and  _338
REMARK  124  A    between atoms: _337  and  _340
REMARK  125  A    between atoms: _340  and  _341
REMARK  126  A    between atoms: _348  and  _349
REMARK  127  A    between atoms: _354  and  _356
REMARK  128  A    between atoms: _356  and  _357
REMARK  129  A    between atoms: _356  and  _359
REMARK  130  A    between atoms: _359  and  _360
REMARK  131  A    between atoms: _363  and  _365
REMARK  132  A    between atoms: _365  and  _366
REMARK  133  A    between atoms: _365  and  _368
REMARK  134  A    between atoms: _368  and  _369
REMARK  135  A    between atoms: _374  and  _375
REMARK  136  A    between atoms: _377  and  _379
REMARK  137  A    between atoms: _379  and  _380
REMARK  138  A    between atoms: _382  and  _384
REMARK  139  A    between atoms: _384  and  _385
REMARK  140  A    between atoms: _384  and  _387
REMARK  141  A    between atoms: _387  and  _388
REMARK  142  A    between atoms: _393  and  _395
REMARK  143  A    between atoms: _395  and  _396
REMARK  144  A    between atoms: _398  and  _400
REMARK  145  A    between atoms: _400  and  _401
REMARK  146  A    between atoms: _400  and  _403
REMARK  147  A    between atoms: _403  and  _404
REMARK  148  A    between atoms: _409  and  _410
REMARK  149  A    between atoms: _412  and  _414
REMARK  150  A    between atoms: _414  and  _415
REMARK  151  A    between atoms: _418  and  _420
REMARK  152  A    between atoms: _420  and  _421
REMARK  153  A    between atoms: _420  and  _423
REMARK  154  A    between atoms: _423  and  _424
REMARK  155  A    between atoms: _424  and  _425
REMARK  156  A    between atoms: _425  and  _426
REMARK  157  A    between atoms: _426  and  _427
REMARK  158  A    between atoms: _431  and  _433
REMARK  159  A    between atoms: _433  and  _434
REMARK  160  A    between atoms: _433  and  _436
REMARK  161  A    between atoms: _436  and  _437
REMARK  162  A    between atoms: _437  and  _438
REMARK  163  A    between atoms: _441  and  _443
REMARK  164  A    between atoms: _443  and  _444
REMARK  165  A    between atoms: _443  and  _446
REMARK  166  A    between atoms: _446  and  _447
REMARK  167  A    between atoms: _449  and  _451
REMARK  168  A    between atoms: _451  and  _452
REMARK  169  A    between atoms: _454  and  _456
REMARK  170  A    between atoms: _456  and  _457
REMARK  171  A    between atoms: _456  and  _459
REMARK  172  A    between atoms: _459  and  _460
REMARK  173  A    between atoms: _463  and  _465
REMARK  174  A    between atoms: _465  and  _466
REMARK  175  A    between atoms: _465  and  _468
REMARK  176  A    between atoms: _468  and  _469
REMARK  177  A    between atoms: _479  and  _481
REMARK  178  A    between atoms: _481  and  _482
REMARK  179  A    between atoms: _485  and  _487
REMARK  180  A    between atoms: _487  and  _488
REMARK  181  A    between atoms: _487  and  _490
REMARK  182  A    between atoms: _490  and  _491
REMARK  183  A    between atoms: _496  and  _497
REMARK  184  A    between atoms: _499  and  _501
REMARK  185  A    between atoms: _501  and  _502
REMARK  186  A    between atoms: _501  and  _504
REMARK  187  A    between atoms: _504  and  _505
REMARK  188  A    between atoms: _510  and  _511
REMARK  189  A    between atoms: _513  and  _515
REMARK  190  A    between atoms: _515  and  _516
REMARK  191  A    between atoms: _515  and  _518
REMARK  192  A    between atoms: _518  and  _519
REMARK  193  A    between atoms: _519  and  _520
REMARK  194  A    between atoms: _523  and  _525
REMARK  195  A    between atoms: _525  and  _526
REMARK  196  A    between atoms: _525  and  _528
REMARK  197  A    between atoms: _528  and  _529
REMARK  198  A    between atoms: _529  and  _530
REMARK  199  A    between atoms: _532  and  _534
REMARK  200  A    between atoms: _534  and  _535
REMARK  201  A    between atoms: _534  and  _537
REMARK  202  A    between atoms: _540  and  _542
REMARK  203  A    between atoms: _542  and  _543
REMARK  204  A    between atoms: _542  and  _545
REMARK  205  A    between atoms: _545  and  _546
REMARK  206  A    between atoms: _556  and  _558
REMARK  207  A    between atoms: _558  and  _559
REMARK  208  A    between atoms: _562  and  _564
REMARK  209  A    between atoms: _564  and  _565
REMARK  210  A    between atoms: _564  and  _567
REMARK  211  A    between atoms: _567  and  _568
REMARK  212  A    between atoms: _571  and  _573
REMARK  213  A    between atoms: _573  and  _574
REMARK  214  A    between atoms: _573  and  _576
REMARK  215  A    between atoms: _576  and  _577
REMARK                            x       y       z     vdW  Elec       q    Type
REMARK                         _______ _______ _______ _____ _____    ______ ____
ROOT
ATOM      1  CA  ILE A   1     -11.807   3.987 -20.727  0.00  0.00    +0.133 C 
ENDROOT
BRANCH   1   2
ATOM      2  N   ILE A   1     -11.898   4.947 -21.827  0.00  0.00    -0.239 NA
ATOM      3  H   ILE A   1     -11.058   5.494 -22.105  0.00  0.00    +0.142 HD
ENDBRANCH   1   2
BRANCH   1   4
ATOM      4  C   ILE A   1     -11.474   4.708 -19.424  0.00  0.00    +0.224 C 
ATOM      5  O   ILE A   1     -10.531   5.495 -19.373  0.00  0.00    -0.287 OA
ENDBRANCH   1   4
BRANCH   1   6
ATOM      6  CB  ILE A   1     -10.796   2.854 -21.032  0.00  0.00    +0.023 C 
ATOM      7  CG2 ILE A   1     -10.746   1.841 -19.886  0.00  0.00    +0.002 C 
BRANCH   6   8
ATOM      8  CG1 ILE A   1     -11.155   2.178 -22.371  0.00  0.00    +0.002 C 
ATOM      9  CD1 ILE A   1     -10.349   0.940 -22.713  0.00  0.00    +0.000 C 
ENDBRANCH   6   8
ENDBRANCH   1   6
TORSDOF 4
REMARK  Name = ../refined-set-2016/3rm4/3rm4_pocket.pdb
REMARK  215 active torsions:
REMARK  status: ('A' for Active; 'I' for Inactive)
REMARK    1  A    between atoms: _1  and  _3
REMARK    2  A    between atoms: _3  and  _4
REMARK    3  A    between atoms: _3  and  _6
REMARK    4  A    between atoms: _6  and  _7
REMARK    5  A    between atoms: _12  and  _13
REMARK    6  A    between atoms: _15  and  _17
REMARK    7  A    between atoms: _17  and  _18
REMARK    8  A    between atoms: _17  and  _20
REMARK    9  A    between atoms: _20  and  _21
REMARK   10  A    between atoms: _24  and  _26
REMARK   11  A    between atoms: _26  and  _27
REMARK   12  A    between atoms: _26  and  _29
REMARK   13  A    between atoms: _29  and  _30
REMARK   14  A    between atoms: _40  and  _42
REMARK   15  A    between atoms: _42  and  _43
REMARK   16  A    between atoms: _42  and  _45
REMARK   17  A    between atoms: _45  and  _46
REMARK   18  A    between atoms: _46  and  _47
REMARK   19  A    between atoms: _47  and  _48
REMARK   20  A    between atoms: _57  and  _59
REMARK   21  A    between atoms: _59  and  _60
REMARK   22  A    between atoms: _59  and  _62
REMARK   23  A    between atoms: _62  and  _63
REMARK   24  A    between atoms: _66  and  _68
REMARK   25  A    between atoms: _68  and  _69
REMARK   26  A    between atoms: _72  and  _74
REMARK   27  A    between atoms: _74  and  _75
REMARK   28  A    between atoms: _74  and  _77
REMARK   29  A    between atoms: _77  and  _78
REMARK   30  A    between atoms: _84  and  _86
REMARK   31  A    between atoms: _86  and  _87
REMARK   32  A    between atoms: _90  and  _92
REMARK   33  A    between atoms: _92  and  _93
REMARK   34  A    between atoms: _92  and  _95
REMARK   35  A    between atoms: _95  and  _96
REMARK   36  A    between atoms: _99  and  _101
REMARK   37  A    between atoms: _101  and  _102
REMARK   38  A    between atoms: _104  and  _106
REMARK   39  A    between atoms: _106  and  _107
REMARK   40  A    between atoms: _109  and  _111
REMARK   41  A    between atoms: _111  and  _112
REMARK   42  A    between atoms: _111  and  _114
REMARK   43  A    between atoms: _114  and  _115
REMARK   44  A    between atoms: _125  and  _127
REMARK   45  A    between atoms: _127  and  _128
REMARK   46  A    between atoms: _127  and  _130
REMARK   47  A    between atoms: _130  and  _131
REMARK   48  A    between atoms: _136  and  _138
REMARK   49  A    between atoms: _138  and  _139
REMARK   50  A    between atoms: _138  and  _141
REMARK   51  A    between atoms: _141  and  _142
REMARK   52  A    between atoms: _145  and  _147
REMARK   53  A    between atoms: _147  and  _148
REMARK   54  A    between atoms: _147  and  _150
REMARK   55  A    between atoms: _150  and  _151
REMARK   56  A    between atoms: _157  and  _159
REMARK   57  A    between atoms: _159  and  _160
REMARK   58  A    between atoms: _159  and  _162
REMARK   59  A    between atoms: _162  and  _163
REMARK   60  A    between atoms: _166  and  _168
REMARK   61  A    between atoms: _168  and  _169
REMARK   62  A    between atoms: _168  and  _171
REMARK   63  A    between atoms: _171  and  _172
REMARK   64  A    between atoms: _182  and  _184
REMARK   65  A    between atoms: _184  and  _185
REMARK   66  A    between atoms: _184  and  _187
REMARK   67  A    between atoms: _187  and  _188
REMARK   68  A    between atoms: _188  and  _189
REMARK   69  A    between atoms: _192  and  _194
REMARK   70  A    between atoms: _194  and  _195
REMARK   71  A    between atoms: _194  and  _197
REMARK   72  A    between atoms: _197  and  _198
REMARK   73  A    between atoms: _203  and  _204
REMARK   74  A    between atoms: _206  and  _208
REMARK   75  A    between atoms: _208  and  _209
REMARK   76  A    between atoms: _208  and  _211
REMARK   77  A    between atoms: _211  and  _212
REMARK   78  A    between atoms: _212  and  _213
REMARK   79  A    between atoms: _213  and  _214
REMARK   80  A    between atoms: _223  and  _225
REMARK   81  A    between atoms: _225  and  _226
REMARK   82  A    between atoms: _229  and  _231
REMARK   83  A    between atoms: _231  and  _232
REMARK   84  A    between atoms: _235  and  _237
REMARK   85  A    between atoms: _237  and  _238
REMARK   86  A    between atoms: _237  and  _240
REMARK   87  A    between atoms: _243  and  _245
REMARK   88  A    between atoms: _245  and  _246
REMARK   89  A    between atoms: _245  and  _248
REMARK   90  A    between atoms: _248  and  _249
REMARK   91  A    between atoms: _254  and  _256
REMARK   92  A    between atoms: _256  and  _257
REMARK   93  A    between atoms: _256  and  _259
REMARK   94  A    between atoms: _262  and  _264
REMARK   95  A    between atoms: _264  and  _265
REMARK   96  A    between atoms: _264  and  _267
REMARK   97  A    between atoms: _267  and  _268
REMARK   98  A    between atoms: _268  and  _269
REMARK   99  A    between atoms: _271  and  _273
REMARK  100  A    between atoms: _273  and  _274
REMARK  101  A    between atoms: _273  and  _276
REMARK  102  A    between atoms: _276  and  _277
REMARK  103  A    between atoms: _280  and  _282
REMARK  104  A    between atoms: _282  and  _283
REMARK  105  A    between atoms: _282  and  _285
REMARK  106  A    between atoms: _285  and  _286
REMARK  107  A    between atoms: _291  and  _292
REMARK  108  A    between atoms: _294  and  _296
REMARK  109  A    between atoms: _296  and  _297
REMARK  110  A    between atoms: _296  and  _299
REMARK  111  A    between atoms: _299  and  _300
REMARK  112  A    between atoms: _303  and  _305
REMARK  113  A    between atoms: _305  and  _306
REMARK  114  A    between atoms: _305  and  _308
REMARK  115  A    between atoms: _308  and  _309
REMARK  116  A    between atoms: _319  and  _321
REMARK  117  A    between atoms: _321  and  _322
REMARK  118  A    between atoms: _321  and  _324
REMARK  119  A    between atoms: _324  and  _325
REMARK  120  A    between atoms: _330  and  _332
REMARK  121  A    between atoms: _332  and  _333
REMARK  122  A    between atoms: _335  and  _337
REMARK  123  A    between atoms: _337  and  _338
REMARK  124  A    between atoms: _337  and  _340
REMARK  125  A    between atoms: _340  and  _341
REMARK  126  A    between atoms: _348  and  _349
REMARK  127  A    between atoms: _354  and  _356
REMARK  128  A    between atoms: _356  and  _357
REMARK  129  A    between atoms: _356  and  _359
REMARK  130  A    between atoms: _359  and  _360
REMARK  131  A    between atoms: _363  and  _365
REMARK  132  A    between atoms: _365  and  _366
REMARK  133  A    between atoms: _365  and  _368
REMARK  134  A    between atoms: _368  and  _369
REMARK  135  A    between atoms: _374  and  _375
REMARK  136  A    between atoms: _377  and  _379
REMARK  137  A    between atoms: _379  and  _380
REMARK  138  A    between atoms: _382  and  _384
REMARK  139  A    between atoms: _384  and  _385
REMARK  140  A    between atoms: _384  and  _387
REMARK  141  A    between atoms: _387  and  _388
REMARK  142  A    between atoms: _393  and  _395
REMARK  143  A    between atoms: _395  and  _396
REMARK  144  A    between atoms: _398  and  _400
REMARK  145  A    between atoms: _400  and  _401
REMARK  146  A    between atoms: _400  and  _403
REMARK  147  A    between atoms: _403  and  _404
REMARK  148  A    between atoms: _409  and  _410
REMARK  149  A    between atoms: _412  and  _414
REMARK  150  A    between atoms: _414  and  _415
REMARK  151  A    between atoms: _418  and  _420
REMARK  152  A    between atoms: _420  and  _421
REMARK  153  A    between atoms: _420  and  _423
REMARK  154  A    between atoms: _423  and  _424
REMARK  155  A    between atoms: _424  and  _425
REMARK  156  A    between atoms: _425  and  _426
REMARK  157  A    between atoms: _426  and  _427
REMARK  158  A    between atoms: _431  and  _433
REMARK  159  A    between atoms: _433  and  _434
REMARK  160  A    between atoms: _433  and  _436
REMARK  161  A    between atoms: _436  and  _437
REMARK  162  A    between atoms: _437  and  _438
REMARK  163  A    between atoms: _441  and  _443
REMARK  164  A    between atoms: _443  and  _444
REMARK  165  A    between atoms: _443  and  _446
REMARK  166  A    between atoms: _446  and  _447
REMARK  167  A    between atoms: _449  and  _451
REMARK  168  A    between atoms: _451  and  _452
REMARK  169  A    between atoms: _454  and  _456
REMARK  170  A    between atoms: _456  and  _457
REMARK  171  A    between atoms: _456  and  _459
REMARK  172  A    between atoms: _459  and  _460
REMARK  173  A    between atoms: _463  and  _465
REMARK  174  A    between atoms: _465  and  _466
REMARK  175  A    between atoms: _465  and  _468
REMARK  176  A    between atoms: _468  and  _469
REMARK  177  A    between atoms: _479  and  _481
REMARK  178  A    between atoms: _481  and  _482
REMARK  179  A    between atoms: _485  and  _487
REMARK  180  A    between atoms: _487  and  _488
REMARK  181  A    between atoms: _487  and  _490
REMARK  182  A    between atoms: _490  and  _491
REMARK  183  A    between atoms: _496  and  _497
REMARK  184  A    between atoms: _499  and  _501
REMARK  185  A    between atoms: _501  and  _502
REMARK  186  A    between atoms: _501  and  _504
REMARK  187  A    between atoms: _504  and  _505
REMARK  188  A    between atoms: _510  and  _511
REMARK  189  A    between atoms: _513  and  _515
REMARK  190  A    between atoms: _515  and  _516
REMARK  191  A    between atoms: _515  and  _518
REMARK  192  A    between atoms: _518  and  _519
REMARK  193  A    between atoms: _519  and  _520
REMARK  194  A    between atoms: _523  and  _525
REMARK  195  A    between atoms: _525  and  _526
REMARK  196  A    between atoms: _525  and  _528
REMARK  197  A    between atoms: _528  and  _529
REMARK  198  A    between atoms: _529  and  _530
REMARK  199  A    between atoms: _532  and  _534
REMARK  200  A    between atoms: _534  and  _535
REMARK  201  A    between atoms: _534  and  _537
REMARK  202  A    between atoms: _540  and  _542
REMARK  203  A    between atoms: _542  and  _543
REMARK  204  A    between atoms: _542  and  _545
REMARK  205  A    between atoms: _545  and  _546
REMARK  206  A    between atoms: _556  and  _558
REMARK  207  A    between atoms: _558  and  _559
REMARK  208  A    between atoms: _562  and  _564
REMARK  209  A    between atoms: _564  and  _565
REMARK  210  A    between atoms: _564  and  _567
REMARK  211  A    between atoms: _567  and  _568
REMARK  212  A    between atoms: _571  and  _573
REMARK  213  A    between atoms: _573  and  _574
REMARK  214  A    between atoms: _573  and  _576
REMARK  215  A    between atoms: _576  and  _577
REMARK                            x       y       z     vdW  Elec       q    Type
REMARK                         _______ _______ _______ _____ _____    ______ ____
ROOT
ATOM      1  CA  PHE A   2      -9.557   2.632 -12.384  0.00  0.00    +0.141 C 
ENDROOT
BRANCH   1   3
ATOM      2  C   ALA A   1      -8.954   4.737 -13.619  0.00  0.00    +0.238 C 
ATOM      3  N   PHE A   2      -9.152   4.046 -12.486  0.00  0.00    -0.298 N 
ATOM      4  H   PHE A   2      -9.005   4.558 -11.593  0.00  0.00    +0.150 HD
ATOM      5  O   ALA A   1      -8.665   5.933 -13.597  0.00  0.00    -0.274 OA
BRANCH   2   6
ATOM      6  CA  ALA A   1      -9.088   4.024 -14.977  0.00  0.00    +0.145 C 
ATOM      7  CB  ALA A   1      -7.726   3.919 -15.662  0.00  0.00    +0.028 C 
BRANCH   6   8
ATOM      8  N   ALA A   1     -10.032   4.716 -15.849  0.00  0.00    -0.238 NA
ATOM      9  H   ALA A   1      -9.774   5.650 -16.225  0.00  0.00    +0.142 HD
ENDBRANCH   6   8
ENDBRANCH   2   6
ENDBRANCH   1   3
BRANCH   1  10
ATOM     10  C   PHE A   2     -10.677   2.418 -11.365  0.00  0.00    +0.227 C 
ATOM     11  O   PHE A   2     -10.883   3.230 -10.445  0.00  0.00    -0.286 OA
ENDBRANCH   1  10
BRANCH   1  12
ATOM     12  CB  PHE A   2      -8.388   1.753 -11.910  0.00  0.00    +0.054 C 
BRANCH  12  13
ATOM     13  CG  PHE A   2      -7.297   1.557 -12.930  0.00  0.00    -0.020 A 
ATOM     14  CD2 PHE A   2      -6.026   2.090 -12.709  0.00  0.00    -0.004 A 
ATOM     15  CE2 PHE A   2      -5.002   1.903 -13.637  0.00  0.00    -0.000 A 
ATOM     16  CZ  PHE A   2      -5.253   1.178 -14.811  0.00  0.00    -0.000 A 
ATOM     17  CE1 PHE A   2      -6.517   0.638 -15.045  0.00  0.00    -0.000 A 
ATOM     18  CD1 PHE A   2      -7.530   0.821 -14.098  0.00  0.00    -0.004 A 
ENDBRANCH  12  13
ENDBRANCH   1  12
TORSDOF 6
REMARK  Name = ../refined-set-2016/3rm4/3rm4_pocket.pdb
REMARK  215 active torsions:
REMARK  status: ('A' for Active; 'I' for Inactive)
REMARK    1  A    between atoms: _1  and  _3
REMARK    2  A    between atoms: _3  and  _4
REMARK    3  A    between atoms: _3  and  _6
REMARK    4  A    between atoms: _6  and  _7
REMARK    5  A    between atoms: _12  and  _13
REMARK    6  A    between atoms: _15  and  _17
REMARK    7  A    between atoms: _17  and  _18
REMARK    8  A    between atoms: _17  and  _20
REMARK    9  A    between atoms: _20  and  _21
REMARK   10  A    between atoms: _24  and  _26
REMARK   11  A    between atoms: _26  and  _27
REMARK   12  A    between atoms: _26  and  _29
REMARK   13  A    between atoms: _29  and  _30
REMARK   14  A    between atoms: _40  and  _42
REMARK   15  A    between atoms: _42  and  _43
REMARK   16  A    between atoms: _42  and  _45
REMARK   17  A    between atoms: _45  and  _46
REMARK   18  A    between atoms: _46  and  _47
REMARK   19  A    between atoms: _47  and  _48
REMARK   20  A    between atoms: _57  and  _59
REMARK   21  A    between atoms: _59  and  _60
REMARK   22  A    between atoms: _59  and  _62
REMARK   23  A    between atoms: _62  and  _63
REMARK   24  A    between atoms: _66  and  _68
REMARK   25  A    between atoms: _68  and  _69
REMARK   26  A    between atoms: _72  and  _74
REMARK   27  A    between atoms: _74  and  _75
REMARK   28  A    between atoms: _74  and  _77
REMARK   29  A    between atoms: _77  and  _78
REMARK   30  A    between atoms: _84  and  _86
REMARK   31  A    between atoms: _86  and  _87
REMARK   32  A    between atoms: _90  and  _92
REMARK   33  A    between atoms: _92  and  _93
REMARK   34  A    between atoms: _92  and  _95
REMARK   35  A    between atoms: _95  and  _96
REMARK   36  A    between atoms: _99  and  _101
REMARK   37  A    between atoms: _101  and  _102
REMARK   38  A    between atoms: _104  and  _106
REMARK   39  A    between atoms: _106  and  _107
REMARK   40  A    between atoms: _109  and  _111
REMARK   41  A    between atoms: _111  and  _112
REMARK   42  A    between atoms: _111  and  _114
REMARK   43  A    between atoms: _114  and  _115
REMARK   44  A    between atoms: _125  and  _127
REMARK   45  A    between atoms: _127  and  _128
REMARK   46  A    between atoms: _127  and  _130
REMARK   47  A    between atoms: _130  and  _131
REMARK   48  A    between atoms: _136  and  _138
REMARK   49  A    between atoms: _138  and  _139
REMARK   50  A    between atoms: _138  and  _141
REMARK   51  A    between atoms: _141  and  _142
REMARK   52  A    between atoms: _145  and  _147
REMARK   53  A    between atoms: _147  and  _148
REMARK   54  A    between atoms: _147  and  _150
REMARK   55  A    between atoms: _150  and  _151
REMARK   56  A    between atoms: _157  and  _159
REMARK   57  A    between atoms: _159  and  _160
REMARK   58  A    between atoms: _159  and  _162
REMARK   59  A    between atoms: _162  and  _163
REMARK   60  A    between atoms: _166  and  _168
REMARK   61  A    between atoms: _168  and  _169
REMARK   62  A    between atoms: _168  and  _171
REMARK   63  A    between atoms: _171  and  _172
REMARK   64  A    between atoms: _182  and  _184
REMARK   65  A    between atoms: _184  and  _185
REMARK   66  A    between atoms: _184  and  _187
REMARK   67  A    between atoms: _187  and  _188
REMARK   68  A    between atoms: _188  and  _189
REMARK   69  A    between atoms: _192  and  _194
REMARK   70  A    between atoms: _194  and  _195
REMARK   71  A    between atoms: _194  and  _197
REMARK   72  A    between atoms: _197  and  _198
REMARK   73  A    between atoms: _203  and  _204
REMARK   74  A    between atoms: _206  and  _208
REMARK   75  A    between atoms: _208  and  _209
REMARK   76  A    between atoms: _208  and  _211
REMARK   77  A    between atoms: _211  and  _212
REMARK   78  A    between atoms: _212  and  _213
REMARK   79  A    between atoms: _213  and  _214
REMARK   80  A    between atoms: _223  and  _225
REMARK   81  A    between atoms: _225  and  _226
REMARK   82  A    between atoms: _229  and  _231
REMARK   83  A    between atoms: _231  and  _232
REMARK   84  A    between atoms: _235  and  _237
REMARK   85  A    between atoms: _237  and  _238
REMARK   86  A    between atoms: _237  and  _240
REMARK   87  A    between atoms: _243  and  _245
REMARK   88  A    between atoms: _245  and  _246
REMARK   89  A    between atoms: _245  and  _248
REMARK   90  A    between atoms: _248  and  _249
REMARK   91  A    between atoms: _254  and  _256
REMARK   92  A    between atoms: _256  and  _257
REMARK   93  A    between atoms: _256  and  _259
REMARK   94  A    between atoms: _262  and  _264
REMARK   95  A    between atoms: _264  and  _265
REMARK   96  A    between atoms: _264  and  _267
REMARK   97  A    between atoms: _267  and  _268
REMARK   98  A    between atoms: _268  and  _269
REMARK   99  A    between atoms: _271  and  _273
REMARK  100  A    between atoms: _273  and  _274
REMARK  101  A    between atoms: _273  and  _276
REMARK  102  A    between atoms: _276  and  _277
REMARK  103  A    between atoms: _280  and  _282
REMARK  104  A    between atoms: _282  and  _283
REMARK  105  A    between atoms: _282  and  _285
REMARK  106  A    between atoms: _285  and  _286
REMARK  107  A    between atoms: _291  and  _292
REMARK  108  A    between atoms: _294  and  _296
REMARK  109  A    between atoms: _296  and  _297
REMARK  110  A    between atoms: _296  and  _299
REMARK  111  A    between atoms: _299  and  _300
REMARK  112  A    between atoms: _303  and  _305
REMARK  113  A    between atoms: _305  and  _306
REMARK  114  A    between atoms: _305  and  _308
REMARK  115  A    between atoms: _308  and  _309
REMARK  116  A    between atoms: _319  and  _321
REMARK  117  A    between atoms: _321  and  _322
REMARK  118  A    between atoms: _321  and  _324
REMARK  119  A    between atoms: _324  and  _325
REMARK  120  A    between atoms: _330  and  _332
REMARK  121  A    between atoms: _332  and  _333
REMARK  122  A    between atoms: _335  and  _337
REMARK  123  A    between atoms: _337  and  _338
REMARK  124  A    between atoms: _337  and  _340
REMARK  125  A    between atoms: _340  and  _341
REMARK  126  A    between atoms: _348  and  _349
REMARK  127  A    between atoms: _354  and  _356
REMARK  128  A    between atoms: _356  and  _357
REMARK  129  A    between atoms: _356  and  _359
REMARK  130  A    between atoms: _359  and  _360
REMARK  131  A    between atoms: _363  and  _365
REMARK  132  A    between atoms: _365  and  _366
REMARK  133  A    between atoms: _365  and  _368
REMARK  134  A    between atoms: _368  and  _369
REMARK  135  A    between atoms: _374  and  _375
REMARK  136  A    between atoms: _377  and  _379
REMARK  137  A    between atoms: _379  and  _380
REMARK  138  A    between atoms: _382  and  _384
REMARK  139  A    between atoms: _384  and  _385
REMARK  140  A    between atoms: _384  and  _387
REMARK  141  A    between atoms: _387  and  _388
REMARK  142  A    between atoms: _393  and  _395
REMARK  143  A    between atoms: _395  and  _396
REMARK  144  A    between atoms: _398  and  _400
REMARK  145  A    between atoms: _400  and  _401
REMARK  146  A    between atoms: _400  and  _403
REMARK  147  A    between atoms: _403  and  _404
REMARK  148  A    between atoms: _409  and  _410
REMARK  149  A    between atoms: _412  and  _414
REMARK  150  A    between atoms: _414  and  _415
REMARK  151  A    between atoms: _418  and  _420
REMARK  152  A    between atoms: _420  and  _421
REMARK  153  A    between atoms: _420  and  _423
REMARK  154  A    between atoms: _423  and  _424
REMARK  155  A    between atoms: _424  and  _425
REMARK  156  A    between atoms: _425  and  _426
REMARK  157  A    between atoms: _426  and  _427
REMARK  158  A    between atoms: _431  and  _433
REMARK  159  A    between atoms: _433  and  _434
REMARK  160  A    between atoms: _433  and  _436
REMARK  161  A    between atoms: _436  and  _437
REMARK  162  A    between atoms: _437  and  _438
REMARK  163  A    between atoms: _441  and  _443
REMARK  164  A    between atoms: _443  and  _444
REMARK  165  A    between atoms: _443  and  _446
REMARK  166  A    between atoms: _446  and  _447
REMARK  167  A    between atoms: _449  and  _451
REMARK  168  A    between atoms: _451  and  _452
REMARK  169  A    between atoms: _454  and  _456
REMARK  170  A    between atoms: _456  and  _457
REMARK  171  A    between atoms: _456  and  _459
REMARK  172  A    between atoms: _459  and  _460
REMARK  173  A    between atoms: _463  and  _465
REMARK  174  A    between atoms: _465  and  _466
REMARK  175  A    between atoms: _465  and  _468
REMARK  176  A    between atoms: _468  and  _469
REMARK  177  A    between atoms: _479  and  _481
REMARK  178  A    between atoms: _481  and  _482
REMARK  179  A    between atoms: _485  and  _487
REMARK  180  A    between atoms: _487  and  _488
REMARK  181  A    between atoms: _487  and  _490
REMARK  182  A    between atoms: _490  and  _491
REMARK  183  A    between atoms: _496  and  _497
REMARK  184  A    between atoms: _499  and  _501
REMARK  185  A    between atoms: _501  and  _502
REMARK  186  A    between atoms: _501  and  _504
REMARK  187  A    between atoms: _504  and  _505
REMARK  188  A    between atoms: _510  and  _511
REMARK  189  A    between atoms: _513  and  _515
REMARK  190  A    between atoms: _515  and  _516
REMARK  191  A    between atoms: _515  and  _518
REMARK  192  A    between atoms: _518  and  _519
REMARK  193  A    between atoms: _519  and  _520
REMARK  194  A    between atoms: _523  and  _525
REMARK  195  A    between atoms: _525  and  _526
REMARK  196  A    between atoms: _525  and  _528
REMARK  197  A    between atoms: _528  and  _529
REMARK  198  A    between atoms: _529  and  _530
REMARK  199  A    between atoms: _532  and  _534
REMARK  200  A    between atoms: _534  and  _535
REMARK  201  A    between atoms: _534  and  _537
REMARK  202  A    between atoms: _540  and  _542
REMARK  203  A    between atoms: _542  and  _543
REMARK  204  A    between atoms: _542  and  _545
REMARK  205  A    between atoms: _545  and  _546
REMARK  206  A    between atoms: _556  and  _558
REMARK  207  A    between atoms: _558  and  _559
REMARK  208  A    between atoms: _562  and  _564
REMARK  209  A    between atoms: _564  and  _565
REMARK  210  A    between atoms: _564  and  _567
REMARK  211  A    between atoms: _567  and  _568
REMARK  212  A    between atoms: _571  and  _573
REMARK  213  A    between atoms: _573  and  _574
REMARK  214  A    between atoms: _573  and  _576
REMARK  215  A    between atoms: _576  and  _577
REMARK                            x       y       z     vdW  Elec       q    Type
REMARK                         _______ _______ _______ _____ _____    ______ ____
ROOT
ATOM      1  C   GLY A   4      -2.744  -2.042 -12.371  0.00  0.00    +0.243 C 
ATOM      2  O   GLY A   4      -2.742  -3.066 -11.691  0.00  0.00    -0.273 OA
ATOM      3  N   TRP A   5      -1.664  -1.300 -12.568  0.00  0.00    -0.297 N 
ATOM      4  H   TRP A   5      -1.754  -0.394 -13.070  0.00  0.00    +0.150 HD
ENDROOT
BRANCH   1   5
ATOM      5  CA  GLY A   4      -4.010  -1.549 -13.033  0.00  0.00    +0.176 C 
BRANCH   5   8
ATOM      6  C   GLY A   3      -6.068  -2.055 -11.822  0.00  0.00    +0.243 C 
ATOM      7  O   GLY A   3      -6.057  -0.989 -11.200  0.00  0.00    -0.273 OA
ATOM      8  N   GLY A   4      -5.141  -2.398 -12.710  0.00  0.00    -0.295 N 
ATOM      9  H   GLY A   4      -5.230  -3.314 -13.194  0.00  0.00    +0.150 HD
BRANCH   6  10
ATOM     10  CA  GLY A   3      -7.175  -3.067 -11.608  0.00  0.00    +0.176 C 
BRANCH  10  12
ATOM     11  C   ILE A   2      -9.145  -3.011 -13.049  0.00  0.00    +0.241 C 
ATOM     12  N   GLY A   3      -8.504  -2.579 -11.966  0.00  0.00    -0.295 N 
ATOM     13  H   GLY A   3      -8.963  -1.873 -11.356  0.00  0.00    +0.150 HD
ATOM     14  O   ILE A   2      -8.622  -3.716 -13.913  0.00  0.00    -0.273 OA
BRANCH  11  15
ATOM     15  CA  ILE A   2     -10.606  -2.575 -13.187  0.00  0.00    +0.148 C 
BRANCH  15  18
ATOM     16  C   ALA A   1     -11.042  -0.804 -14.803  0.00  0.00    +0.238 C 
ATOM     17  O   ALA A   1     -11.118   0.038 -13.916  0.00  0.00    -0.274 OA
ATOM     18  N   ILE A   2     -10.880  -2.101 -14.548  0.00  0.00    -0.297 N 
ATOM     19  H   ILE A   2     -10.949  -2.788 -15.326  0.00  0.00    +0.150 HD
BRANCH  16  20
ATOM     20  CA  ALA A   1     -11.172  -0.402 -16.268  0.00  0.00    +0.145 C 
ATOM     21  CB  ALA A   1      -9.906   0.271 -16.749  0.00  0.00    +0.028 C 
BRANCH  20  22
ATOM     22  N   ALA A   1     -12.327   0.476 -16.452  0.00  0.00    -0.238 NA
ATOM     23  H   ALA A   1     -12.219   1.501 -16.313  0.00  0.00    +0.142 HD
ENDBRANCH  20  22
ENDBRANCH  16  20
ENDBRANCH  15  18
BRANCH  15  24
ATOM     24  CB  ILE A   2     -11.571  -3.713 -12.744  0.00  0.00    +0.027 C 
ATOM     25  CG2 ILE A   2     -11.453  -4.949 -13.655  0.00  0.00    +0.002 C 
BRANCH  24  26
ATOM     26  CG1 ILE A   2     -11.365  -4.066 -11.265  0.00  0.00    +0.002 C 
ATOM     27  CD1 ILE A   2     -12.504  -4.885 -10.661  0.00  0.00    +0.000 C 
ENDBRANCH  24  26
ENDBRANCH  15  24
ENDBRANCH  11  15
ENDBRANCH  10  12
ENDBRANCH   6  10
ENDBRANCH   5   8
ENDBRANCH   1   5
BRANCH   3  28
ATOM     28  CA  TRP A   5      -0.350  -1.728 -12.095  0.00  0.00    +0.153 C 
BRANCH  28  29
ATOM     29  C   TRP A   5      -0.250  -1.828 -10.568  0.00  0.00    +0.241 C 
ATOM     30  N   ASN A   6      -0.584  -0.748  -9.867  0.00  0.00    -0.298 N 
ATOM     31  H   ASN A   6      -0.947   0.096 -10.354  0.00  0.00    +0.150 HD
ATOM     32  O   TRP A   5       0.118  -2.879 -10.032  0.00  0.00    -0.273 OA
BRANCH  30  33
ATOM     33  CA  ASN A   6      -0.442  -0.747  -8.418  0.00  0.00    +0.146 C 
BRANCH  33  34
ATOM     34  C   ASN A   6      -1.436  -1.647  -7.702  0.00  0.00    +0.227 C 
ATOM     35  O   ASN A   6      -1.174  -2.103  -6.604  0.00  0.00    -0.286 OA
ENDBRANCH  33  34
BRANCH  33  36
ATOM     36  CB  ASN A   6      -0.485   0.676  -7.864  0.00  0.00    +0.112 C 
BRANCH  36  37
ATOM     37  CG  ASN A   6       0.775   1.446  -8.171  0.00  0.00    +0.222 C 
ATOM     38  OD1 ASN A   6       1.866   0.877  -8.236  0.00  0.00    -0.275 OA
ATOM     39  ND2 ASN A   6       0.637   2.752  -8.351  0.00  0.00    -0.329 N 
ATOM     40 HD21 ASN A   6      -0.304   3.189  -8.287  0.00  0.00    +0.145 HD
ATOM     41 HD22 ASN A   6       1.470   3.340  -8.557  0.00  0.00    +0.145 HD
ENDBRANCH  36  37
ENDBRANCH  33  36
ENDBRANCH  30  33
ENDBRANCH  28  29
BRANCH  28  42
ATOM     42  CB  TRP A   5       0.737  -0.816 -12.657  0.00  0.00    +0.057 C 
BRANCH  42  43
ATOM     43  CG  TRP A   5       2.105  -1.220 -12.241  0.00  0.00    -0.002 A 
ATOM     44  CD1 TRP A   5       2.837  -0.693 -11.221  0.00  0.00    +0.068 A 
ATOM     45  NE1 TRP A   5       4.053  -1.316 -11.141  0.00  0.00    -0.352 N 
ATOM     46  HE1 TRP A   5       4.798  -1.098 -10.448  0.00  0.00    +0.166 HD
ATOM     47  CE2 TRP A   5       4.133  -2.271 -12.117  0.00  0.00    +0.056 A 
ATOM     48  CZ2 TRP A   5       5.164  -3.166 -12.423  0.00  0.00    +0.017 A 
ATOM     49  CH2 TRP A   5       4.956  -4.032 -13.467  0.00  0.00    +0.001 A 
ATOM     50  CZ3 TRP A   5       3.751  -4.028 -14.201  0.00  0.00    +0.000 A 
ATOM     51  CE3 TRP A   5       2.729  -3.138 -13.894  0.00  0.00    +0.001 A 
ATOM     52  CD2 TRP A   5       2.914  -2.245 -12.830  0.00  0.00    +0.013 A 
ENDBRANCH  42  43
ENDBRANCH  28  42
ENDBRANCH   3  28
TORSDOF 18
REMARK  Name = ../refined-set-2016/3rm4/3rm4_pocket.pdb
REMARK  215 active torsions:
REMARK  status: ('A' for Active; 'I' for Inactive)
REMARK    1  A    between atoms: _1  and  _3
REMARK    2  A    between atoms: _3  and  _4
REMARK    3  A    between atoms: _3  and  _6
REMARK    4  A    between atoms: _6  and  _7
REMARK    5  A    between atoms: _12  and  _13
REMARK    6  A    between atoms: _15  and  _17
REMARK    7  A    between atoms: _17  and  _18
REMARK    8  A    between atoms: _17  and  _20
REMARK    9  A    between atoms: _20  and  _21
REMARK   10  A    between atoms: _24  and  _26
REMARK   11  A    between atoms: _26  and  _27
REMARK   12  A    between atoms: _26  and  _29
REMARK   13  A    between atoms: _29  and  _30
REMARK   14  A    between atoms: _40  and  _42
REMARK   15  A    between atoms: _42  and  _43
REMARK   16  A    between atoms: _42  and  _45
REMARK   17  A    between atoms: _45  and  _46
REMARK   18  A    between atoms: _46  and  _47
REMARK   19  A    between atoms: _47  and  _48
REMARK   20  A    between atoms: _57  and  _59
REMARK   21  A    between atoms: _59  and  _60
REMARK   22  A    between atoms: _59  and  _62
REMARK   23  A    between atoms: _62  and  _63
REMARK   24  A    between atoms: _66  and  _68
REMARK   25  A    between atoms: _68  and  _69
REMARK   26  A    between atoms: _72  and  _74
REMARK   27  A    between atoms: _74  and  _75
REMARK   28  A    between atoms: _74  and  _77
REMARK   29  A    between atoms: _77  and  _78
REMARK   30  A    between atoms: _84  and  _86
REMARK   31  A    between atoms: _86  and  _87
REMARK   32  A    between atoms: _90  and  _92
REMARK   33  A    between atoms: _92  and  _93
REMARK   34  A    between atoms: _92  and  _95
REMARK   35  A    between atoms: _95  and  _96
REMARK   36  A    between atoms: _99  and  _101
REMARK   37  A    between atoms: _101  and  _102
REMARK   38  A    between atoms: _104  and  _106
REMARK   39  A    between atoms: _106  and  _107
REMARK   40  A    between atoms: _109  and  _111
REMARK   41  A    between atoms: _111  and  _112
REMARK   42  A    between atoms: _111  and  _114
REMARK   43  A    between atoms: _114  and  _115
REMARK   44  A    between atoms: _125  and  _127
REMARK   45  A    between atoms: _127  and  _128
REMARK   46  A    between atoms: _127  and  _130
REMARK   47  A    between atoms: _130  and  _131
REMARK   48  A    between atoms: _136  and  _138
REMARK   49  A    between atoms: _138  and  _139
REMARK   50  A    between atoms: _138  and  _141
REMARK   51  A    between atoms: _141  and  _142
REMARK   52  A    between atoms: _145  and  _147
REMARK   53  A    between atoms: _147  and  _148
REMARK   54  A    between atoms: _147  and  _150
REMARK   55  A    between atoms: _150  and  _151
REMARK   56  A    between atoms: _157  and  _159
REMARK   57  A    between atoms: _159  and  _160
REMARK   58  A    between atoms: _159  and  _162
REMARK   59  A    between atoms: _162  and  _163
REMARK   60  A    between atoms: _166  and  _168
REMARK   61  A    between atoms: _168  and  _169
REMARK   62  A    between atoms: _168  and  _171
REMARK   63  A    between atoms: _171  and  _172
REMARK   64  A    between atoms: _182  and  _184
REMARK   65  A    between atoms: _184  and  _185
REMARK   66  A    between atoms: _184  and  _187
REMARK   67  A    between atoms: _187  and  _188
REMARK   68  A    between atoms: _188  and  _189
REMARK   69  A    between atoms: _192  and  _194
REMARK   70  A    between atoms: _194  and  _195
REMARK   71  A    between atoms: _194  and  _197
REMARK   72  A    between atoms: _197  and  _198
REMARK   73  A    between atoms: _203  and  _204
REMARK   74  A    between atoms: _206  and  _208
REMARK   75  A    between atoms: _208  and  _209
REMARK   76  A    between atoms: _208  and  _211
REMARK   77  A    between atoms: _211  and  _212
REMARK   78  A    between atoms: _212  and  _213
REMARK   79  A    between atoms: _213  and  _214
REMARK   80  A    between atoms: _223  and  _225
REMARK   81  A    between atoms: _225  and  _226
REMARK   82  A    between atoms: _229  and  _231
REMARK   83  A    between atoms: _231  and  _232
REMARK   84  A    between atoms: _235  and  _237
REMARK   85  A    between atoms: _237  and  _238
REMARK   86  A    between atoms: _237  and  _240
REMARK   87  A    between atoms: _243  and  _245
REMARK   88  A    between atoms: _245  and  _246
REMARK   89  A    between atoms: _245  and  _248
REMARK   90  A    between atoms: _248  and  _249
REMARK   91  A    between atoms: _254  and  _256
REMARK   92  A    between atoms: _256  and  _257
REMARK   93  A    between atoms: _256  and  _259
REMARK   94  A    between atoms: _262  and  _264
REMARK   95  A    between atoms: _264  and  _265
REMARK   96  A    between atoms: _264  and  _267
REMARK   97  A    between atoms: _267  and  _268
REMARK   98  A    between atoms: _268  and  _269
REMARK   99  A    between atoms: _271  and  _273
REMARK  100  A    between atoms: _273  and  _274
REMARK  101  A    between atoms: _273  and  _276
REMARK  102  A    between atoms: _276  and  _277
REMARK  103  A    between atoms: _280  and  _282
REMARK  104  A    between atoms: _282  and  _283
REMARK  105  A    between atoms: _282  and  _285
REMARK  106  A    between atoms: _285  and  _286
REMARK  107  A    between atoms: _291  and  _292
REMARK  108  A    between atoms: _294  and  _296
REMARK  109  A    between atoms: _296  and  _297
REMARK  110  A    between atoms: _296  and  _299
REMARK  111  A    between atoms: _299  and  _300
REMARK  112  A    between atoms: _303  and  _305
REMARK  113  A    between atoms: _305  and  _306
REMARK  114  A    between atoms: _305  and  _308
REMARK  115  A    between atoms: _308  and  _309
REMARK  116  A    between atoms: _319  and  _321
REMARK  117  A    between atoms: _321  and  _322
REMARK  118  A    between atoms: _321  and  _324
REMARK  119  A    between atoms: _324  and  _325
REMARK  120  A    between atoms: _330  and  _332
REMARK  121  A    between atoms: _332  and  _333
REMARK  122  A    between atoms: _335  and  _337
REMARK  123  A    between atoms: _337  and  _338
REMARK  124  A    between atoms: _337  and  _340
REMARK  125  A    between atoms: _340  and  _341
REMARK  126  A    between atoms: _348  and  _349
REMARK  127  A    between atoms: _354  and  _356
REMARK  128  A    between atoms: _356  and  _357
REMARK  129  A    between atoms: _356  and  _359
REMARK  130  A    between atoms: _359  and  _360
REMARK  131  A    between atoms: _363  and  _365
REMARK  132  A    between atoms: _365  and  _366
REMARK  133  A    between atoms: _365  and  _368
REMARK  134  A    between atoms: _368  and  _369
REMARK  135  A    between atoms: _374  and  _375
REMARK  136  A    between atoms: _377  and  _379
REMARK  137  A    between atoms: _379  and  _380
REMARK  138  A    between atoms: _382  and  _384
REMARK  139  A    between atoms: _384  and  _385
REMARK  140  A    between atoms: _384  and  _387
REMARK  141  A    between atoms: _387  and  _388
REMARK  142  A    between atoms: _393  and  _395
REMARK  143  A    between atoms: _395  and  _396
REMARK  144  A    between atoms: _398  and  _400
REMARK  145  A    between atoms: _400  and  _401
REMARK  146  A    between atoms: _400  and  _403
REMARK  147  A    between atoms: _403  and  _404
REMARK  148  A    between atoms: _409  and  _410
REMARK  149  A    between atoms: _412  and  _414
REMARK  150  A    between atoms: _414  and  _415
REMARK  151  A    between atoms: _418  and  _420
REMARK  152  A    between atoms: _420  and  _421
REMARK  153  A    between atoms: _420  and  _423
REMARK  154  A    between atoms: _423  and  _424
REMARK  155  A    between atoms: _424  and  _425
REMARK  156  A    between atoms: _425  and  _426
REMARK  157  A    between atoms: _426  and  _427
REMARK  158  A    between atoms: _431  and  _433
REMARK  159  A    between atoms: _433  and  _434
REMARK  160  A    between atoms: _433  and  _436
REMARK  161  A    between atoms: _436  and  _437
REMARK  162  A    between atoms: _437  and  _438
REMARK  163  A    between atoms: _441  and  _443
REMARK  164  A    between atoms: _443  and  _444
REMARK  165  A    between atoms: _443  and  _446
REMARK  166  A    between atoms: _446  and  _447
REMARK  167  A    between atoms: _449  and  _451
REMARK  168  A    between atoms: _451  and  _452
REMARK  169  A    between atoms: _454  and  _456
REMARK  170  A    between atoms: _456  and  _457
REMARK  171  A    between atoms: _456  and  _459
REMARK  172  A    between atoms: _459  and  _460
REMARK  173  A    between atoms: _463  and  _465
REMARK  174  A    between atoms: _465  and  _466
REMARK  175  A    between atoms: _465  and  _468
REMARK  176  A    between atoms: _468  and  _469
REMARK  177  A    between atoms: _479  and  _481
REMARK  178  A    between atoms: _481  and  _482
REMARK  179  A    between atoms: _485  and  _487
REMARK  180  A    between atoms: _487  and  _488
REMARK  181  A    between atoms: _487  and  _490
REMARK  182  A    between atoms: _490  and  _491
REMARK  183  A    between atoms: _496  and  _497
REMARK  184  A    between atoms: _499  and  _501
REMARK  185  A    between atoms: _501  and  _502
REMARK  186  A    between atoms: _501  and  _504
REMARK  187  A    between atoms: _504  and  _505
REMARK  188  A    between atoms: _510  and  _511
REMARK  189  A    between atoms: _513  and  _515
REMARK  190  A    between atoms: _515  and  _516
REMARK  191  A    between atoms: _515  and  _518
REMARK  192  A    between atoms: _518  and  _519
REMARK  193  A    between atoms: _519  and  _520
REMARK  194  A    between atoms: _523  and  _525
REMARK  195  A    between atoms: _525  and  _526
REMARK  196  A    between atoms: _525  and  _528
REMARK  197  A    between atoms: _528  and  _529
REMARK  198  A    between atoms: _529  and  _530
REMARK  199  A    between atoms: _532  and  _534
REMARK  200  A    between atoms: _534  and  _535
REMARK  201  A    between atoms: _534  and  _537
REMARK  202  A    between atoms: _540  and  _542
REMARK  203  A    between atoms: _542  and  _543
REMARK  204  A    between atoms: _542  and  _545
REMARK  205  A    between atoms: _545  and  _546
REMARK  206  A    between atoms: _556  and  _558
REMARK  207  A    between atoms: _558  and  _559
REMARK  208  A    between atoms: _562  and  _564
REMARK  209  A    between atoms: _564  and  _565
REMARK  210  A    between atoms: _564  and  _567
REMARK  211  A    between atoms: _567  and  _568
REMARK  212  A    between atoms: _571  and  _573
REMARK  213  A    between atoms: _573  and  _574
REMARK  214  A    between atoms: _573  and  _576
REMARK  215  A    between atoms: _576  and  _577
REMARK                            x       y       z     vdW  Elec       q    Type
REMARK                         _______ _______ _______ _____ _____    ______ ____
ROOT
ATOM      1  CA  TRP A   4      -5.018  -7.480 -14.405  0.00  0.00    +0.153 C 
ENDROOT
BRANCH   1   4
ATOM      2  C   ASP A   3      -5.677  -5.250 -15.141  0.00  0.00    +0.241 C 
ATOM      3  O   ASP A   3      -5.169  -4.685 -14.161  0.00  0.00    -0.273 OA
ATOM      4  N   TRP A   4      -5.710  -6.567 -15.290  0.00  0.00    -0.297 N 
ATOM      5  H   TRP A   4      -6.259  -6.963 -16.080  0.00  0.00    +0.150 HD
BRANCH   2   6
ATOM      6  CA  ASP A   3      -6.343  -4.470 -16.273  0.00  0.00    +0.160 C 
BRANCH   6   8
ATOM      7  C   PHE A   2      -8.271  -5.336 -17.490  0.00  0.00    +0.241 C 
ATOM      8  N   ASP A   3      -7.770  -4.821 -16.369  0.00  0.00    -0.297 N 
ATOM      9  H   ASP A   3      -8.394  -4.665 -15.552  0.00  0.00    +0.150 HD
ATOM     10  O   PHE A   2      -7.621  -5.426 -18.541  0.00  0.00    -0.273 OA
BRANCH   7  11
ATOM     11  CA  PHE A   2      -9.699  -5.871 -17.430  0.00  0.00    +0.153 C 
BRANCH  11  14
ATOM     12  C   ASP A   1     -11.059  -4.004 -18.247  0.00  0.00    +0.239 C 
ATOM     13  O   ASP A   1     -10.985  -3.406 -17.180  0.00  0.00    -0.274 OA
ATOM     14  N   PHE A   2     -10.537  -5.218 -18.436  0.00  0.00    -0.297 N 
ATOM     15  H   PHE A   2     -10.732  -5.716 -19.328  0.00  0.00    +0.150 HD
BRANCH  12  16
ATOM     16  CA  ASP A   1     -11.796  -3.369 -19.428  0.00  0.00    +0.156 C 
BRANCH  16  17
ATOM     17  N   ASP A   1     -13.169  -3.098 -19.005  0.00  0.00    -0.238 NA
ATOM     18  H   ASP A   1     -13.335  -2.298 -18.362  0.00  0.00    +0.142 HD
ENDBRANCH  16  17
BRANCH  16  19
ATOM     19  CB  ASP A   1     -11.089  -2.061 -19.825  0.00  0.00    +0.140 C 
BRANCH  19  20
ATOM     20  CG  ASP A   1      -9.714  -2.291 -20.455  0.00  0.00    +0.367 C 
ATOM     21  OD2 ASP A   1      -8.728  -1.674 -19.995  0.00  0.00    -0.246 OA
ATOM     22  OD1 ASP A   1      -9.612  -3.067 -21.425  0.00  0.00    -0.246 OA
ENDBRANCH  19  20
ENDBRANCH  16  19
ENDBRANCH  12  16
ENDBRANCH  11  14
BRANCH  11  23
ATOM     23  CB  PHE A   2      -9.638  -7.386 -17.664  0.00  0.00    +0.055 C 
BRANCH  23  24
ATOM     24  CG  PHE A   2     -10.829  -8.134 -17.157  0.00  0.00    -0.020 A 
ATOM     25  CD2 PHE A   2     -11.025  -8.305 -15.783  0.00  0.00    -0.004 A 
ATOM     26  CE2 PHE A   2     -12.131  -9.006 -15.295  0.00  0.00    -0.000 A 
ATOM     27  CZ  PHE A   2     -13.056  -9.538 -16.189  0.00  0.00    -0.000 A 
ATOM     28  CE1 PHE A   2     -12.872  -9.376 -17.567  0.00  0.00    -0.000 A 
ATOM     29  CD1 PHE A   2     -11.760  -8.668 -18.045  0.00  0.00    -0.004 A 
ENDBRANCH  23  24
ENDBRANCH  11  23
ENDBRANCH   7  11
ENDBRANCH   6   8
BRANCH   6  30
ATOM     30  CB  ASP A   3      -6.138  -2.961 -16.130  0.00  0.00    +0.143 C 
BRANCH  30  31
ATOM     31  CG  ASP A   3      -6.653  -2.195 -17.322  0.00  0.00    +0.367 C 
ATOM     32  OD2 ASP A   3      -7.877  -2.227 -17.560  0.00  0.00    -0.246 OA
ATOM     33  OD1 ASP A   3      -5.837  -1.563 -18.024  0.00  0.00    -0.246 OA
ENDBRANCH  30  31
ENDBRANCH   6  30
ENDBRANCH   2   6
ENDBRANCH   1   4
BRANCH   1  34
ATOM     34  C   TRP A   4      -3.586  -7.538 -14.898  0.00  0.00    +0.241 C 
ATOM     35  N   GLU A   5      -2.654  -7.095 -14.061  0.00  0.00    -0.297 N 
ATOM     36  H   GLU A   5      -2.928  -6.798 -13.103  0.00  0.00    +0.150 HD
ATOM     37  O   TRP A   4      -3.332  -7.980 -16.017  0.00  0.00    -0.273 OA
BRANCH  35  38
ATOM     38  CA  GLU A   5      -1.265  -7.018 -14.459  0.00  0.00    +0.149 C 
BRANCH  38  39
ATOM     39  C   GLU A   5      -0.377  -7.842 -13.519  0.00  0.00    +0.241 C 
ATOM     40  O   GLU A   5       0.151  -7.319 -12.534  0.00  0.00    -0.273 OA
ATOM     41  N   TYR A   6      -0.210  -9.140 -13.798  0.00  0.00    -0.298 N 
ATOM     42  H   TYR A   6       0.382  -9.688 -13.142  0.00  0.00    +0.150 HD
BRANCH  41  43
ATOM     43  CA  TYR A   6      -0.781  -9.869 -14.941  0.00  0.00    +0.141 C 
BRANCH  43  44
ATOM     44  C   TYR A   6      -1.085 -11.270 -14.417  0.00  0.00    +0.227 C 
ATOM     45  O   TYR A   6      -0.463 -11.695 -13.441  0.00  0.00    -0.286 OA
ENDBRANCH  43  44
BRANCH  43  46
ATOM     46  CB  TYR A   6       0.230 -10.028 -16.088  0.00  0.00    +0.054 C 
BRANCH  46  47
ATOM     47  CG  TYR A   6       0.907  -8.758 -16.544  0.00  0.00    -0.020 A 
ATOM     48  CD2 TYR A   6       2.159  -8.399 -16.042  0.00  0.00    -0.001 A 
ATOM     49  CE2 TYR A   6       2.790  -7.235 -16.455  0.00  0.00    +0.036 A 
ATOM     50  CZ  TYR A   6       2.165  -6.408 -17.373  0.00  0.00    +0.134 A 
ATOM     51  CE1 TYR A   6       0.913  -6.734 -17.879  0.00  0.00    +0.036 A 
ATOM     52  CD1 TYR A   6       0.294  -7.909 -17.465  0.00  0.00    -0.001 A 
BRANCH  50  53
ATOM     53  OH  TYR A   6       2.784  -5.250 -17.774  0.00  0.00    -0.506 OA
ATOM     54  HH  TYR A   6       3.661  -5.172 -17.321  0.00  0.00    +0.292 HD
ENDBRANCH  50  53
ENDBRANCH  46  47
ENDBRANCH  43  46
ENDBRANCH  41  43
ENDBRANCH  38  39
BRANCH  38  55
ATOM     55  CB  GLU A   5      -0.831  -5.537 -14.591  0.00  0.00    +0.041 C 
BRANCH  55  56
ATOM     56  CG  GLU A   5      -1.840  -4.721 -15.449  0.00  0.00    +0.116 C 
BRANCH  56  57
ATOM     57  CD  GLU A   5      -1.446  -3.273 -15.707  0.00  0.00    +0.365 C 
ATOM     58  OE2 GLU A   5      -0.321  -2.857 -15.355  0.00  0.00    -0.246 OA
ATOM     59  OE1 GLU A   5      -2.284  -2.546 -16.278  0.00  0.00    -0.246 OA
ENDBRANCH  56  57
ENDBRANCH  55  56
ENDBRANCH  38  55
ENDBRANCH  35  38
ENDBRANCH   1  34
BRANCH   1  60
ATOM     60  CB  TRP A   4      -5.673  -8.863 -14.505  0.00  0.00    +0.057 C 
BRANCH  60  61
ATOM     61  CG  TRP A   4      -5.100  -9.938 -13.627  0.00  0.00    -0.002 A 
ATOM     62  CD1 TRP A   4      -3.906  -9.929 -12.967  0.00  0.00    +0.068 A 
ATOM     63  NE1 TRP A   4      -3.734 -11.115 -12.284  0.00  0.00    -0.352 N 
ATOM     64  HE1 TRP A   4      -2.914 -11.359 -11.693  0.00  0.00    +0.166 HD
ATOM     65  CE2 TRP A   4      -4.821 -11.919 -12.512  0.00  0.00    +0.056 A 
ATOM     66  CZ2 TRP A   4      -5.103 -13.210 -12.050  0.00  0.00    +0.017 A 
ATOM     67  CH2 TRP A   4      -6.285 -13.783 -12.449  0.00  0.00    +0.001 A 
ATOM     68  CZ3 TRP A   4      -7.179 -13.107 -13.292  0.00  0.00    +0.000 A 
ATOM     69  CE3 TRP A   4      -6.896 -11.824 -13.758  0.00  0.00    +0.001 A 
ATOM     70  CD2 TRP A   4      -5.699 -11.212 -13.359  0.00  0.00    +0.013 A 
ENDBRANCH  60  61
ENDBRANCH   1  60
TORSDOF 26
REMARK  Name = ../refined-set-2016/3rm4/3rm4_pocket.pdb
REMARK  215 active torsions:
REMARK  status: ('A' for Active; 'I' for Inactive)
REMARK    1  A    between atoms: _1  and  _3
REMARK    2  A    between atoms: _3  and  _4
REMARK    3  A    between atoms: _3  and  _6
REMARK    4  A    between atoms: _6  and  _7
REMARK    5  A    between atoms: _12  and  _13
REMARK    6  A    between atoms: _15  and  _17
REMARK    7  A    between atoms: _17  and  _18
REMARK    8  A    between atoms: _17  and  _20
REMARK    9  A    between atoms: _20  and  _21
REMARK   10  A    between atoms: _24  and  _26
REMARK   11  A    between atoms: _26  and  _27
REMARK   12  A    between atoms: _26  and  _29
REMARK   13  A    between atoms: _29  and  _30
REMARK   14  A    between atoms: _40  and  _42
REMARK   15  A    between atoms: _42  and  _43
REMARK   16  A    between atoms: _42  and  _45
REMARK   17  A    between atoms: _45  and  _46
REMARK   18  A    between atoms: _46  and  _47
REMARK   19  A    between atoms: _47  and  _48
REMARK   20  A    between atoms: _57  and  _59
REMARK   21  A    between atoms: _59  and  _60
REMARK   22  A    between atoms: _59  and  _62
REMARK   23  A    between atoms: _62  and  _63
REMARK   24  A    between atoms: _66  and  _68
REMARK   25  A    between atoms: _68  and  _69
REMARK   26  A    between atoms: _72  and  _74
REMARK   27  A    between atoms: _74  and  _75
REMARK   28  A    between atoms: _74  and  _77
REMARK   29  A    between atoms: _77  and  _78
REMARK   30  A    between atoms: _84  and  _86
REMARK   31  A    between atoms: _86  and  _87
REMARK   32  A    between atoms: _90  and  _92
REMARK   33  A    between atoms: _92  and  _93
REMARK   34  A    between atoms: _92  and  _95
REMARK   35  A    between atoms: _95  and  _96
REMARK   36  A    between atoms: _99  and  _101
REMARK   37  A    between atoms: _101  and  _102
REMARK   38  A    between atoms: _104  and  _106
REMARK   39  A    between atoms: _106  and  _107
REMARK   40  A    between atoms: _109  and  _111
REMARK   41  A    between atoms: _111  and  _112
REMARK   42  A    between atoms: _111  and  _114
REMARK   43  A    between atoms: _114  and  _115
REMARK   44  A    between atoms: _125  and  _127
REMARK   45  A    between atoms: _127  and  _128
REMARK   46  A    between atoms: _127  and  _130
REMARK   47  A    between atoms: _130  and  _131
REMARK   48  A    between atoms: _136  and  _138
REMARK   49  A    between atoms: _138  and  _139
REMARK   50  A    between atoms: _138  and  _141
REMARK   51  A    between atoms: _141  and  _142
REMARK   52  A    between atoms: _145  and  _147
REMARK   53  A    between atoms: _147  and  _148
REMARK   54  A    between atoms: _147  and  _150
REMARK   55  A    between atoms: _150  and  _151
REMARK   56  A    between atoms: _157  and  _159
REMARK   57  A    between atoms: _159  and  _160
REMARK   58  A    between atoms: _159  and  _162
REMARK   59  A    between atoms: _162  and  _163
REMARK   60  A    between atoms: _166  and  _168
REMARK   61  A    between atoms: _168  and  _169
REMARK   62  A    between atoms: _168  and  _171
REMARK   63  A    between atoms: _171  and  _172
REMARK   64  A    between atoms: _182  and  _184
REMARK   65  A    between atoms: _184  and  _185
REMARK   66  A    between atoms: _184  and  _187
REMARK   67  A    between atoms: _187  and  _188
REMARK   68  A    between atoms: _188  and  _189
REMARK   69  A    between atoms: _192  and  _194
REMARK   70  A    between atoms: _194  and  _195
REMARK   71  A    between atoms: _194  and  _197
REMARK   72  A    between atoms: _197  and  _198
REMARK   73  A    between atoms: _203  and  _204
REMARK   74  A    between atoms: _206  and  _208
REMARK   75  A    between atoms: _208  and  _209
REMARK   76  A    between atoms: _208  and  _211
REMARK   77  A    between atoms: _211  and  _212
REMARK   78  A    between atoms: _212  and  _213
REMARK   79  A    between atoms: _213  and  _214
REMARK   80  A    between atoms: _223  and  _225
REMARK   81  A    between atoms: _225  and  _226
REMARK   82  A    between atoms: _229  and  _231
REMARK   83  A    between atoms: _231  and  _232
REMARK   84  A    between atoms: _235  and  _237
REMARK   85  A    between atoms: _237  and  _238
REMARK   86  A    between atoms: _237  and  _240
REMARK   87  A    between atoms: _243  and  _245
REMARK   88  A    between atoms: _245  and  _246
REMARK   89  A    between atoms: _245  and  _248
REMARK   90  A    between atoms: _248  and  _249
REMARK   91  A    between atoms: _254  and  _256
REMARK   92  A    between atoms: _256  and  _257
REMARK   93  A    between atoms: _256  and  _259
REMARK   94  A    between atoms: _262  and  _264
REMARK   95  A    between atoms: _264  and  _265
REMARK   96  A    between atoms: _264  and  _267
REMARK   97  A    between atoms: _267  and  _268
REMARK   98  A    between atoms: _268  and  _269
REMARK   99  A    between atoms: _271  and  _273
REMARK  100  A    between atoms: _273  and  _274
REMARK  101  A    between atoms: _273  and  _276
REMARK  102  A    between atoms: _276  and  _277
REMARK  103  A    between atoms: _280  and  _282
REMARK  104  A    between atoms: _282  and  _283
REMARK  105  A    between atoms: _282  and  _285
REMARK  106  A    between atoms: _285  and  _286
REMARK  107  A    between atoms: _291  and  _292
REMARK  108  A    between atoms: _294  and  _296
REMARK  109  A    between atoms: _296  and  _297
REMARK  110  A    between atoms: _296  and  _299
REMARK  111  A    between atoms: _299  and  _300
REMARK  112  A    between atoms: _303  and  _305
REMARK  113  A    between atoms: _305  and  _306
REMARK  114  A    between atoms: _305  and  _308
REMARK  115  A    between atoms: _308  and  _309
REMARK  116  A    between atoms: _319  and  _321
REMARK  117  A    between atoms: _321  and  _322
REMARK  118  A    between atoms: _321  and  _324
REMARK  119  A    between atoms: _324  and  _325
REMARK  120  A    between atoms: _330  and  _332
REMARK  121  A    between atoms: _332  and  _333
REMARK  122  A    between atoms: _335  and  _337
REMARK  123  A    between atoms: _337  and  _338
REMARK  124  A    between atoms: _337  and  _340
REMARK  125  A    between atoms: _340  and  _341
REMARK  126  A    between atoms: _348  and  _349
REMARK  127  A    between atoms: _354  and  _356
REMARK  128  A    between atoms: _356  and  _357
REMARK  129  A    between atoms: _356  and  _359
REMARK  130  A    between atoms: _359  and  _360
REMARK  131  A    between atoms: _363  and  _365
REMARK  132  A    between atoms: _365  and  _366
REMARK  133  A    between atoms: _365  and  _368
REMARK  134  A    between atoms: _368  and  _369
REMARK  135  A    between atoms: _374  and  _375
REMARK  136  A    between atoms: _377  and  _379
REMARK  137  A    between atoms: _379  and  _380
REMARK  138  A    between atoms: _382  and  _384
REMARK  139  A    between atoms: _384  and  _385
REMARK  140  A    between atoms: _384  and  _387
REMARK  141  A    between atoms: _387  and  _388
REMARK  142  A    between atoms: _393  and  _395
REMARK  143  A    between atoms: _395  and  _396
REMARK  144  A    between atoms: _398  and  _400
REMARK  145  A    between atoms: _400  and  _401
REMARK  146  A    between atoms: _400  and  _403
REMARK  147  A    between atoms: _403  and  _404
REMARK  148  A    between atoms: _409  and  _410
REMARK  149  A    between atoms: _412  and  _414
REMARK  150  A    between atoms: _414  and  _415
REMARK  151  A    between atoms: _418  and  _420
REMARK  152  A    between atoms: _420  and  _421
REMARK  153  A    between atoms: _420  and  _423
REMARK  154  A    between atoms: _423  and  _424
REMARK  155  A    between atoms: _424  and  _425
REMARK  156  A    between atoms: _425  and  _426
REMARK  157  A    between atoms: _426  and  _427
REMARK  158  A    between atoms: _431  and  _433
REMARK  159  A    between atoms: _433  and  _434
REMARK  160  A    between atoms: _433  and  _436
REMARK  161  A    between atoms: _436  and  _437
REMARK  162  A    between atoms: _437  and  _438
REMARK  163  A    between atoms: _441  and  _443
REMARK  164  A    between atoms: _443  and  _444
REMARK  165  A    between atoms: _443  and  _446
REMARK  166  A    between atoms: _446  and  _447
REMARK  167  A    between atoms: _449  and  _451
REMARK  168  A    between atoms: _451  and  _452
REMARK  169  A    between atoms: _454  and  _456
REMARK  170  A    between atoms: _456  and  _457
REMARK  171  A    between atoms: _456  and  _459
REMARK  172  A    between atoms: _459  and  _460
REMARK  173  A    between atoms: _463  and  _465
REMARK  174  A    between atoms: _465  and  _466
REMARK  175  A    between atoms: _465  and  _468
REMARK  176  A    between atoms: _468  and  _469
REMARK  177  A    between atoms: _479  and  _481
REMARK  178  A    between atoms: _481  and  _482
REMARK  179  A    between atoms: _485  and  _487
REMARK  180  A    between atoms: _487  and  _488
REMARK  181  A    between atoms: _487  and  _490
REMARK  182  A    between atoms: _490  and  _491
REMARK  183  A    between atoms: _496  and  _497
REMARK  184  A    between atoms: _499  and  _501
REMARK  185  A    between atoms: _501  and  _502
REMARK  186  A    between atoms: _501  and  _504
REMARK  187  A    between atoms: _504  and  _505
REMARK  188  A    between atoms: _510  and  _511
REMARK  189  A    between atoms: _513  and  _515
REMARK  190  A    between atoms: _515  and  _516
REMARK  191  A    between atoms: _515  and  _518
REMARK  192  A    between atoms: _518  and  _519
REMARK  193  A    between atoms: _519  and  _520
REMARK  194  A    between atoms: _523  and  _525
REMARK  195  A    between atoms: _525  and  _526
REMARK  196  A    between atoms: _525  and  _528
REMARK  197  A    between atoms: _528  and  _529
REMARK  198  A    between atoms: _529  and  _530
REMARK  199  A    between atoms: _532  and  _534
REMARK  200  A    between atoms: _534  and  _535
REMARK  201  A    between atoms: _534  and  _537
REMARK  202  A    between atoms: _540  and  _542
REMARK  203  A    between atoms: _542  and  _543
REMARK  204  A    between atoms: _542  and  _545
REMARK  205  A    between atoms: _545  and  _546
REMARK  206  A    between atoms: _556  and  _558
REMARK  207  A    between atoms: _558  and  _559
REMARK  208  A    between atoms: _562  and  _564
REMARK  209  A    between atoms: _564  and  _565
REMARK  210  A    between atoms: _564  and  _567
REMARK  211  A    between atoms: _567  and  _568
REMARK  212  A    between atoms: _571  and  _573
REMARK  213  A    between atoms: _573  and  _574
REMARK  214  A    between atoms: _573  and  _576
REMARK  215  A    between atoms: _576  and  _577
REMARK                            x       y       z     vdW  Elec       q    Type
REMARK                         _______ _______ _______ _____ _____    ______ ____
ROOT
ATOM      1  NE  ARG A   1       3.499  -6.021 -11.073  0.00  0.00    -0.265 N 
ATOM      2  CZ  ARG A   1       2.591  -5.155 -10.613  0.00  0.00    +0.342 C 
ATOM      3  NH2 ARG A   1       2.943  -4.265  -9.694  0.00  0.00    -0.292 N 
ATOM      4 HH21 ARG A   1       2.242  -3.588  -9.331  0.00  0.00    +0.255 HD
ATOM      5 HH22 ARG A   1       3.920  -4.245  -9.337  0.00  0.00    +0.255 HD
ATOM      6  NH1 ARG A   1       1.329  -5.181 -11.044  0.00  0.00    -0.292 N 
ATOM      7 HH11 ARG A   1       0.638  -4.498 -10.673  0.00  0.00    +0.255 HD
ATOM      8 HH12 ARG A   1       1.035  -5.885 -11.751  0.00  0.00    +0.255 HD
ATOM      9  HE  ARG A   1       4.461  -5.959 -10.684  0.00  0.00    +0.259 HD
ENDROOT
BRANCH   1  10
ATOM     10  CD  ARG A   1       3.245  -7.049 -12.081  0.00  0.00    +0.174 C 
BRANCH  10  11
ATOM     11  CG  ARG A   1       3.918  -8.383 -11.732  0.00  0.00    +0.045 C 
BRANCH  11  12
ATOM     12  CB  ARG A   1       3.169  -9.090 -10.611  0.00  0.00    +0.029 C 
BRANCH  12  13
ATOM     13  CA  ARG A   1       3.774 -10.434 -10.171  0.00  0.00    +0.133 C 
BRANCH  13  14
ATOM     14  N   ARG A   1       3.881 -11.375 -11.292  0.00  0.00    -0.239 NA
ATOM     15  H   ARG A   1       4.793 -11.464 -11.783  0.00  0.00    +0.142 HD
ENDBRANCH  13  14
BRANCH  13  16
ATOM     16  C   ARG A   1       2.976 -11.031  -9.019  0.00  0.00    +0.224 C 
ATOM     17  O   ARG A   1       2.054 -10.404  -8.483  0.00  0.00    -0.287 OA
ENDBRANCH  13  16
ENDBRANCH  12  13
ENDBRANCH  11  12
ENDBRANCH  10  11
ENDBRANCH   1  10
TORSDOF 6
REMARK  Name = ../refined-set-2016/3rm4/3rm4_pocket.pdb
REMARK  215 active torsions:
REMARK  status: ('A' for Active; 'I' for Inactive)
REMARK    1  A    between atoms: _1  and  _3
REMARK    2  A    between atoms: _3  and  _4
REMARK    3  A    between atoms: _3  and  _6
REMARK    4  A    between atoms: _6  and  _7
REMARK    5  A    between atoms: _12  and  _13
REMARK    6  A    between atoms: _15  and  _17
REMARK    7  A    between atoms: _17  and  _18
REMARK    8  A    between atoms: _17  and  _20
REMARK    9  A    between atoms: _20  and  _21
REMARK   10  A    between atoms: _24  and  _26
REMARK   11  A    between atoms: _26  and  _27
REMARK   12  A    between atoms: _26  and  _29
REMARK   13  A    between atoms: _29  and  _30
REMARK   14  A    between atoms: _40  and  _42
REMARK   15  A    between atoms: _42  and  _43
REMARK   16  A    between atoms: _42  and  _45
REMARK   17  A    between atoms: _45  and  _46
REMARK   18  A    between atoms: _46  and  _47
REMARK   19  A    between atoms: _47  and  _48
REMARK   20  A    between atoms: _57  and  _59
REMARK   21  A    between atoms: _59  and  _60
REMARK   22  A    between atoms: _59  and  _62
REMARK   23  A    between atoms: _62  and  _63
REMARK   24  A    between atoms: _66  and  _68
REMARK   25  A    between atoms: _68  and  _69
REMARK   26  A    between atoms: _72  and  _74
REMARK   27  A    between atoms: _74  and  _75
REMARK   28  A    between atoms: _74  and  _77
REMARK   29  A    between atoms: _77  and  _78
REMARK   30  A    between atoms: _84  and  _86
REMARK   31  A    between atoms: _86  and  _87
REMARK   32  A    between atoms: _90  and  _92
REMARK   33  A    between atoms: _92  and  _93
REMARK   34  A    between atoms: _92  and  _95
REMARK   35  A    between atoms: _95  and  _96
REMARK   36  A    between atoms: _99  and  _101
REMARK   37  A    between atoms: _101  and  _102
REMARK   38  A    between atoms: _104  and  _106
REMARK   39  A    between atoms: _106  and  _107
REMARK   40  A    between atoms: _109  and  _111
REMARK   41  A    between atoms: _111  and  _112
REMARK   42  A    between atoms: _111  and  _114
REMARK   43  A    between atoms: _114  and  _115
REMARK   44  A    between atoms: _125  and  _127
REMARK   45  A    between atoms: _127  and  _128
REMARK   46  A    between atoms: _127  and  _130
REMARK   47  A    between atoms: _130  and  _131
REMARK   48  A    between atoms: _136  and  _138
REMARK   49  A    between atoms: _138  and  _139
REMARK   50  A    between atoms: _138  and  _141
REMARK   51  A    between atoms: _141  and  _142
REMARK   52  A    between atoms: _145  and  _147
REMARK   53  A    between atoms: _147  and  _148
REMARK   54  A    between atoms: _147  and  _150
REMARK   55  A    between atoms: _150  and  _151
REMARK   56  A    between atoms: _157  and  _159
REMARK   57  A    between atoms: _159  and  _160
REMARK   58  A    between atoms: _159  and  _162
REMARK   59  A    between atoms: _162  and  _163
REMARK   60  A    between atoms: _166  and  _168
REMARK   61  A    between atoms: _168  and  _169
REMARK   62  A    between atoms: _168  and  _171
REMARK   63  A    between atoms: _171  and  _172
REMARK   64  A    between atoms: _182  and  _184
REMARK   65  A    between atoms: _184  and  _185
REMARK   66  A    between atoms: _184  and  _187
REMARK   67  A    between atoms: _187  and  _188
REMARK   68  A    between atoms: _188  and  _189
REMARK   69  A    between atoms: _192  and  _194
REMARK   70  A    between atoms: _194  and  _195
REMARK   71  A    between atoms: _194  and  _197
REMARK   72  A    between atoms: _197  and  _198
REMARK   73  A    between atoms: _203  and  _204
REMARK   74  A    between atoms: _206  and  _208
REMARK   75  A    between atoms: _208  and  _209
REMARK   76  A    between atoms: _208  and  _211
REMARK   77  A    between atoms: _211  and  _212
REMARK   78  A    between atoms: _212  and  _213
REMARK   79  A    between atoms: _213  and  _214
REMARK   80  A    between atoms: _223  and  _225
REMARK   81  A    between atoms: _225  and  _226
REMARK   82  A    between atoms: _229  and  _231
REMARK   83  A    between atoms: _231  and  _232
REMARK   84  A    between atoms: _235  and  _237
REMARK   85  A    between atoms: _237  and  _238
REMARK   86  A    between atoms: _237  and  _240
REMARK   87  A    between atoms: _243  and  _245
REMARK   88  A    between atoms: _245  and  _246
REMARK   89  A    between atoms: _245  and  _248
REMARK   90  A    between atoms: _248  and  _249
REMARK   91  A    between atoms: _254  and  _256
REMARK   92  A    between atoms: _256  and  _257
REMARK   93  A    between atoms: _256  and  _259
REMARK   94  A    between atoms: _262  and  _264
REMARK   95  A    between atoms: _264  and  _265
REMARK   96  A    between atoms: _264  and  _267
REMARK   97  A    between atoms: _267  and  _268
REMARK   98  A    between atoms: _268  and  _269
REMARK   99  A    between atoms: _271  and  _273
REMARK  100  A    between atoms: _273  and  _274
REMARK  101  A    between atoms: _273  and  _276
REMARK  102  A    between atoms: _276  and  _277
REMARK  103  A    between atoms: _280  and  _282
REMARK  104  A    between atoms: _282  and  _283
REMARK  105  A    between atoms: _282  and  _285
REMARK  106  A    between atoms: _285  and  _286
REMARK  107  A    between atoms: _291  and  _292
REMARK  108  A    between atoms: _294  and  _296
REMARK  109  A    between atoms: _296  and  _297
REMARK  110  A    between atoms: _296  and  _299
REMARK  111  A    between atoms: _299  and  _300
REMARK  112  A    between atoms: _303  and  _305
REMARK  113  A    between atoms: _305  and  _306
REMARK  114  A    between atoms: _305  and  _308
REMARK  115  A    between atoms: _308  and  _309
REMARK  116  A    between atoms: _319  and  _321
REMARK  117  A    between atoms: _321  and  _322
REMARK  118  A    between atoms: _321  and  _324
REMARK  119  A    between atoms: _324  and  _325
REMARK  120  A    between atoms: _330  and  _332
REMARK  121  A    between atoms: _332  and  _333
REMARK  122  A    between atoms: _335  and  _337
REMARK  123  A    between atoms: _337  and  _338
REMARK  124  A    between atoms: _337  and  _340
REMARK  125  A    between atoms: _340  and  _341
REMARK  126  A    between atoms: _348  and  _349
REMARK  127  A    between atoms: _354  and  _356
REMARK  128  A    between atoms: _356  and  _357
REMARK  129  A    between atoms: _356  and  _359
REMARK  130  A    between atoms: _359  and  _360
REMARK  131  A    between atoms: _363  and  _365
REMARK  132  A    between atoms: _365  and  _366
REMARK  133  A    between atoms: _365  and  _368
REMARK  134  A    between atoms: _368  and  _369
REMARK  135  A    between atoms: _374  and  _375
REMARK  136  A    between atoms: _377  and  _379
REMARK  137  A    between atoms: _379  and  _380
REMARK  138  A    between atoms: _382  and  _384
REMARK  139  A    between atoms: _384  and  _385
REMARK  140  A    between atoms: _384  and  _387
REMARK  141  A    between atoms: _387  and  _388
REMARK  142  A    between atoms: _393  and  _395
REMARK  143  A    between atoms: _395  and  _396
REMARK  144  A    between atoms: _398  and  _400
REMARK  145  A    between atoms: _400  and  _401
REMARK  146  A    between atoms: _400  and  _403
REMARK  147  A    between atoms: _403  and  _404
REMARK  148  A    between atoms: _409  and  _410
REMARK  149  A    between atoms: _412  and  _414
REMARK  150  A    between atoms: _414  and  _415
REMARK  151  A    between atoms: _418  and  _420
REMARK  152  A    between atoms: _420  and  _421
REMARK  153  A    between atoms: _420  and  _423
REMARK  154  A    between atoms: _423  and  _424
REMARK  155  A    between atoms: _424  and  _425
REMARK  156  A    between atoms: _425  and  _426
REMARK  157  A    between atoms: _426  and  _427
REMARK  158  A    between atoms: _431  and  _433
REMARK  159  A    between atoms: _433  and  _434
REMARK  160  A    between atoms: _433  and  _436
REMARK  161  A    between atoms: _436  and  _437
REMARK  162  A    between atoms: _437  and  _438
REMARK  163  A    between atoms: _441  and  _443
REMARK  164  A    between atoms: _443  and  _444
REMARK  165  A    between atoms: _443  and  _446
REMARK  166  A    between atoms: _446  and  _447
REMARK  167  A    between atoms: _449  and  _451
REMARK  168  A    between atoms: _451  and  _452
REMARK  169  A    between atoms: _454  and  _456
REMARK  170  A    between atoms: _456  and  _457
REMARK  171  A    between atoms: _456  and  _459
REMARK  172  A    between atoms: _459  and  _460
REMARK  173  A    between atoms: _463  and  _465
REMARK  174  A    between atoms: _465  and  _466
REMARK  175  A    between atoms: _465  and  _468
REMARK  176  A    between atoms: _468  and  _469
REMARK  177  A    between atoms: _479  and  _481
REMARK  178  A    between atoms: _481  and  _482
REMARK  179  A    between atoms: _485  and  _487
REMARK  180  A    between atoms: _487  and  _488
REMARK  181  A    between atoms: _487  and  _490
REMARK  182  A    between atoms: _490  and  _491
REMARK  183  A    between atoms: _496  and  _497
REMARK  184  A    between atoms: _499  and  _501
REMARK  185  A    between atoms: _501  and  _502
REMARK  186  A    between atoms: _501  and  _504
REMARK  187  A    between atoms: _504  and  _505
REMARK  188  A    between atoms: _510  and  _511
REMARK  189  A    between atoms: _513  and  _515
REMARK  190  A    between atoms: _515  and  _516
REMARK  191  A    between atoms: _515  and  _518
REMARK  192  A    between atoms: _518  and  _519
REMARK  193  A    between atoms: _519  and  _520
REMARK  194  A    between atoms: _523  and  _525
REMARK  195  A    between atoms: _525  and  _526
REMARK  196  A    between atoms: _525  and  _528
REMARK  197  A    between atoms: _528  and  _529
REMARK  198  A    between atoms: _529  and  _530
REMARK  199  A    between atoms: _532  and  _534
REMARK  200  A    between atoms: _534  and  _535
REMARK  201  A    between atoms: _534  and  _537
REMARK  202  A    between atoms: _540  and  _542
REMARK  203  A    between atoms: _542  and  _543
REMARK  204  A    between atoms: _542  and  _545
REMARK  205  A    between atoms: _545  and  _546
REMARK  206  A    between atoms: _556  and  _558
REMARK  207  A    between atoms: _558  and  _559
REMARK  208  A    between atoms: _562  and  _564
REMARK  209  A    between atoms: _564  and  _565
REMARK  210  A    between atoms: _564  and  _567
REMARK  211  A    between atoms: _567  and  _568
REMARK  212  A    between atoms: _571  and  _573
REMARK  213  A    between atoms: _573  and  _574
REMARK  214  A    between atoms: _573  and  _576
REMARK  215  A    between atoms: _576  and  _577
REMARK                            x       y       z     vdW  Elec       q    Type
REMARK                         _______ _______ _______ _____ _____    ______ ____
ROOT
ATOM      1  CA  ALA A   2      -5.204  -4.715 -21.358  0.00  0.00    +0.149 C 
ATOM      2  CB  ALA A   2      -4.856  -3.589 -20.417  0.00  0.00    +0.031 C 
ENDROOT
BRANCH   1   4
ATOM      3  C   ALA A   1      -7.296  -5.796 -22.105  0.00  0.00    +0.238 C 
ATOM      4  N   ALA A   2      -6.607  -5.117 -21.185  0.00  0.00    -0.297 N 
ATOM      5  H   ALA A   2      -7.088  -4.859 -20.300  0.00  0.00    +0.150 HD
ATOM      6  O   ALA A   1      -6.965  -5.894 -23.280  0.00  0.00    -0.274 OA
BRANCH   3   7
ATOM      7  CA  ALA A   1      -8.574  -6.455 -21.618  0.00  0.00    +0.145 C 
ATOM      8  CB  ALA A   1      -8.328  -7.935 -21.341  0.00  0.00    +0.028 C 
BRANCH   7   9
ATOM      9  N   ALA A   1      -9.666  -6.283 -22.569  0.00  0.00    -0.238 NA
ATOM     10  H   ALA A   1      -9.454  -6.183 -23.582  0.00  0.00    +0.142 HD
ENDBRANCH   7   9
ENDBRANCH   3   7
ENDBRANCH   1   4
BRANCH   1  11
ATOM     11  C   ALA A   2      -4.307  -5.906 -21.077  0.00  0.00    +0.241 C 
ATOM     12  O   ALA A   2      -4.465  -6.595 -20.049  0.00  0.00    -0.273 OA
ATOM     13  N   VAL A   3      -3.358  -6.146 -21.985  0.00  0.00    -0.298 N 
ATOM     14  H   VAL A   3      -3.216  -5.468 -22.760  0.00  0.00    +0.150 HD
BRANCH  13  15
ATOM     15  CA  VAL A   3      -2.515  -7.336 -21.918  0.00  0.00    +0.137 C 
BRANCH  15  16
ATOM     16  CB  VAL A   3      -2.950  -8.411 -22.966  0.00  0.00    +0.026 C 
ATOM     17  CG2 VAL A   3      -4.403  -8.842 -22.746  0.00  0.00    +0.002 C 
ATOM     18  CG1 VAL A   3      -2.752  -7.901 -24.381  0.00  0.00    +0.002 C 
ENDBRANCH  15  16
BRANCH  15  19
ATOM     19  C   VAL A   3      -1.021  -6.986 -22.059  0.00  0.00    +0.227 C 
ATOM     20  O   VAL A   3      -0.660  -5.948 -22.627  0.00  0.00    -0.286 OA
ENDBRANCH  15  19
ENDBRANCH  13  15
ENDBRANCH   1  11
TORSDOF 7
REMARK  Name = ../refined-set-2016/3rm4/3rm4_pocket.pdb
REMARK  215 active torsions:
REMARK  status: ('A' for Active; 'I' for Inactive)
REMARK    1  A    between atoms: _1  and  _3
REMARK    2  A    between atoms: _3  and  _4
REMARK    3  A    between atoms: _3  and  _6
REMARK    4  A    between atoms: _6  and  _7
REMARK    5  A    between atoms: _12  and  _13
REMARK    6  A    between atoms: _15  and  _17
REMARK    7  A    between atoms: _17  and  _18
REMARK    8  A    between atoms: _17  and  _20
REMARK    9  A    between atoms: _20  and  _21
REMARK   10  A    between atoms: _24  and  _26
REMARK   11  A    between atoms: _26  and  _27
REMARK   12  A    between atoms: _26  and  _29
REMARK   13  A    between atoms: _29  and  _30
REMARK   14  A    between atoms: _40  and  _42
REMARK   15  A    between atoms: _42  and  _43
REMARK   16  A    between atoms: _42  and  _45
REMARK   17  A    between atoms: _45  and  _46
REMARK   18  A    between atoms: _46  and  _47
REMARK   19  A    between atoms: _47  and  _48
REMARK   20  A    between atoms: _57  and  _59
REMARK   21  A    between atoms: _59  and  _60
REMARK   22  A    between atoms: _59  and  _62
REMARK   23  A    between atoms: _62  and  _63
REMARK   24  A    between atoms: _66  and  _68
REMARK   25  A    between atoms: _68  and  _69
REMARK   26  A    between atoms: _72  and  _74
REMARK   27  A    between atoms: _74  and  _75
REMARK   28  A    between atoms: _74  and  _77
REMARK   29  A    between atoms: _77  and  _78
REMARK   30  A    between atoms: _84  and  _86
REMARK   31  A    between atoms: _86  and  _87
REMARK   32  A    between atoms: _90  and  _92
REMARK   33  A    between atoms: _92  and  _93
REMARK   34  A    between atoms: _92  and  _95
REMARK   35  A    between atoms: _95  and  _96
REMARK   36  A    between atoms: _99  and  _101
REMARK   37  A    between atoms: _101  and  _102
REMARK   38  A    between atoms: _104  and  _106
REMARK   39  A    between atoms: _106  and  _107
REMARK   40  A    between atoms: _109  and  _111
REMARK   41  A    between atoms: _111  and  _112
REMARK   42  A    between atoms: _111  and  _114
REMARK   43  A    between atoms: _114  and  _115
REMARK   44  A    between atoms: _125  and  _127
REMARK   45  A    between atoms: _127  and  _128
REMARK   46  A    between atoms: _127  and  _130
REMARK   47  A    between atoms: _130  and  _131
REMARK   48  A    between atoms: _136  and  _138
REMARK   49  A    between atoms: _138  and  _139
REMARK   50  A    between atoms: _138  and  _141
REMARK   51  A    between atoms: _141  and  _142
REMARK   52  A    between atoms: _145  and  _147
REMARK   53  A    between atoms: _147  and  _148
REMARK   54  A    between atoms: _147  and  _150
REMARK   55  A    between atoms: _150  and  _151
REMARK   56  A    between atoms: _157  and  _159
REMARK   57  A    between atoms: _159  and  _160
REMARK   58  A    between atoms: _159  and  _162
REMARK   59  A    between atoms: _162  and  _163
REMARK   60  A    between atoms: _166  and  _168
REMARK   61  A    between atoms: _168  and  _169
REMARK   62  A    between atoms: _168  and  _171
REMARK   63  A    between atoms: _171  and  _172
REMARK   64  A    between atoms: _182  and  _184
REMARK   65  A    between atoms: _184  and  _185
REMARK   66  A    between atoms: _184  and  _187
REMARK   67  A    between atoms: _187  and  _188
REMARK   68  A    between atoms: _188  and  _189
REMARK   69  A    between atoms: _192  and  _194
REMARK   70  A    between atoms: _194  and  _195
REMARK   71  A    between atoms: _194  and  _197
REMARK   72  A    between atoms: _197  and  _198
REMARK   73  A    between atoms: _203  and  _204
REMARK   74  A    between atoms: _206  and  _208
REMARK   75  A    between atoms: _208  and  _209
REMARK   76  A    between atoms: _208  and  _211
REMARK   77  A    between atoms: _211  and  _212
REMARK   78  A    between atoms: _212  and  _213
REMARK   79  A    between atoms: _213  and  _214
REMARK   80  A    between atoms: _223  and  _225
REMARK   81  A    between atoms: _225  and  _226
REMARK   82  A    between atoms: _229  and  _231
REMARK   83  A    between atoms: _231  and  _232
REMARK   84  A    between atoms: _235  and  _237
REMARK   85  A    between atoms: _237  and  _238
REMARK   86  A    between atoms: _237  and  _240
REMARK   87  A    between atoms: _243  and  _245
REMARK   88  A    between atoms: _245  and  _246
REMARK   89  A    between atoms: _245  and  _248
REMARK   90  A    between atoms: _248  and  _249
REMARK   91  A    between atoms: _254  and  _256
REMARK   92  A    between atoms: _256  and  _257
REMARK   93  A    between atoms: _256  and  _259
REMARK   94  A    between atoms: _262  and  _264
REMARK   95  A    between atoms: _264  and  _265
REMARK   96  A    between atoms: _264  and  _267
REMARK   97  A    between atoms: _267  and  _268
REMARK   98  A    between atoms: _268  and  _269
REMARK   99  A    between atoms: _271  and  _273
REMARK  100  A    between atoms: _273  and  _274
REMARK  101  A    between atoms: _273  and  _276
REMARK  102  A    between atoms: _276  and  _277
REMARK  103  A    between atoms: _280  and  _282
REMARK  104  A    between atoms: _282  and  _283
REMARK  105  A    between atoms: _282  and  _285
REMARK  106  A    between atoms: _285  and  _286
REMARK  107  A    between atoms: _291  and  _292
REMARK  108  A    between atoms: _294  and  _296
REMARK  109  A    between atoms: _296  and  _297
REMARK  110  A    between atoms: _296  and  _299
REMARK  111  A    between atoms: _299  and  _300
REMARK  112  A    between atoms: _303  and  _305
REMARK  113  A    between atoms: _305  and  _306
REMARK  114  A    between atoms: _305  and  _308
REMARK  115  A    between atoms: _308  and  _309
REMARK  116  A    between atoms: _319  and  _321
REMARK  117  A    between atoms: _321  and  _322
REMARK  118  A    between atoms: _321  and  _324
REMARK  119  A    between atoms: _324  and  _325
REMARK  120  A    between atoms: _330  and  _332
REMARK  121  A    between atoms: _332  and  _333
REMARK  122  A    between atoms: _335  and  _337
REMARK  123  A    between atoms: _337  and  _338
REMARK  124  A    between atoms: _337  and  _340
REMARK  125  A    between atoms: _340  and  _341
REMARK  126  A    between atoms: _348  and  _349
REMARK  127  A    between atoms: _354  and  _356
REMARK  128  A    between atoms: _356  and  _357
REMARK  129  A    between atoms: _356  and  _359
REMARK  130  A    between atoms: _359  and  _360
REMARK  131  A    between atoms: _363  and  _365
REMARK  132  A    between atoms: _365  and  _366
REMARK  133  A    between atoms: _365  and  _368
REMARK  134  A    between atoms: _368  and  _369
REMARK  135  A    between atoms: _374  and  _375
REMARK  136  A    between atoms: _377  and  _379
REMARK  137  A    between atoms: _379  and  _380
REMARK  138  A    between atoms: _382  and  _384
REMARK  139  A    between atoms: _384  and  _385
REMARK  140  A    between atoms: _384  and  _387
REMARK  141  A    between atoms: _387  and  _388
REMARK  142  A    between atoms: _393  and  _395
REMARK  143  A    between atoms: _395  and  _396
REMARK  144  A    between atoms: _398  and  _400
REMARK  145  A    between atoms: _400  and  _401
REMARK  146  A    between atoms: _400  and  _403
REMARK  147  A    between atoms: _403  and  _404
REMARK  148  A    between atoms: _409  and  _410
REMARK  149  A    between atoms: _412  and  _414
REMARK  150  A    between atoms: _414  and  _415
REMARK  151  A    between atoms: _418  and  _420
REMARK  152  A    between atoms: _420  and  _421
REMARK  153  A    between atoms: _420  and  _423
REMARK  154  A    between atoms: _423  and  _424
REMARK  155  A    between atoms: _424  and  _425
REMARK  156  A    between atoms: _425  and  _426
REMARK  157  A    between atoms: _426  and  _427
REMARK  158  A    between atoms: _431  and  _433
REMARK  159  A    between atoms: _433  and  _434
REMARK  160  A    between atoms: _433  and  _436
REMARK  161  A    between atoms: _436  and  _437
REMARK  162  A    between atoms: _437  and  _438
REMARK  163  A    between atoms: _441  and  _443
REMARK  164  A    between atoms: _443  and  _444
REMARK  165  A    between atoms: _443  and  _446
REMARK  166  A    between atoms: _446  and  _447
REMARK  167  A    between atoms: _449  and  _451
REMARK  168  A    between atoms: _451  and  _452
REMARK  169  A    between atoms: _454  and  _456
REMARK  170  A    between atoms: _456  and  _457
REMARK  171  A    between atoms: _456  and  _459
REMARK  172  A    between atoms: _459  and  _460
REMARK  173  A    between atoms: _463  and  _465
REMARK  174  A    between atoms: _465  and  _466
REMARK  175  A    between atoms: _465  and  _468
REMARK  176  A    between atoms: _468  and  _469
REMARK  177  A    between atoms: _479  and  _481
REMARK  178  A    between atoms: _481  and  _482
REMARK  179  A    between atoms: _485  and  _487
REMARK  180  A    between atoms: _487  and  _488
REMARK  181  A    between atoms: _487  and  _490
REMARK  182  A    between atoms: _490  and  _491
REMARK  183  A    between atoms: _496  and  _497
REMARK  184  A    between atoms: _499  and  _501
REMARK  185  A    between atoms: _501  and  _502
REMARK  186  A    between atoms: _501  and  _504
REMARK  187  A    between atoms: _504  and  _505
REMARK  188  A    between atoms: _510  and  _511
REMARK  189  A    between atoms: _513  and  _515
REMARK  190  A    between atoms: _515  and  _516
REMARK  191  A    between atoms: _515  and  _518
REMARK  192  A    between atoms: _518  and  _519
REMARK  193  A    between atoms: _519  and  _520
REMARK  194  A    between atoms: _523  and  _525
REMARK  195  A    between atoms: _525  and  _526
REMARK  196  A    between atoms: _525  and  _528
REMARK  197  A    between atoms: _528  and  _529
REMARK  198  A    between atoms: _529  and  _530
REMARK  199  A    between atoms: _532  and  _534
REMARK  200  A    between atoms: _534  and  _535
REMARK  201  A    between atoms: _534  and  _537
REMARK  202  A    between atoms: _540  and  _542
REMARK  203  A    between atoms: _542  and  _543
REMARK  204  A    between atoms: _542  and  _545
REMARK  205  A    between atoms: _545  and  _546
REMARK  206  A    between atoms: _556  and  _558
REMARK  207  A    between atoms: _558  and  _559
REMARK  208  A    between atoms: _562  and  _564
REMARK  209  A    between atoms: _564  and  _565
REMARK  210  A    between atoms: _564  and  _567
REMARK  211  A    between atoms: _567  and  _568
REMARK  212  A    between atoms: _571  and  _573
REMARK  213  A    between atoms: _573  and  _574
REMARK  214  A    between atoms: _573  and  _576
REMARK  215  A    between atoms: _576  and  _577
REMARK                            x       y       z     vdW  Elec       q    Type
REMARK                         _______ _______ _______ _____ _____    ______ ____
ROOT
ATOM      1  C   MET A   3       1.902  -2.346 -24.187  0.00  0.00    +0.241 C 
ATOM      2  O   MET A   3       2.897  -2.557 -23.467  0.00  0.00    -0.273 OA
ATOM      3  N   THR A   4       1.982  -1.980 -25.469  0.00  0.00    -0.295 N 
ATOM      4  H   THR A   4       1.097  -1.804 -25.987  0.00  0.00    +0.150 HD
ENDROOT
BRANCH   1   5
ATOM      5  CA  MET A   3       0.482  -2.488 -23.634  0.00  0.00    +0.149 C 
BRANCH   5   7
ATOM      6  C   VAL A   2      -0.878  -3.353 -25.496  0.00  0.00    +0.241 C 
ATOM      7  N   MET A   3      -0.291  -3.525 -24.312  0.00  0.00    -0.297 N 
ATOM      8  H   MET A   3      -0.389  -4.449 -23.845  0.00  0.00    +0.150 HD
ATOM      9  O   VAL A   2      -0.741  -2.343 -26.194  0.00  0.00    -0.273 OA
BRANCH   6  10
ATOM     10  CA  VAL A   2      -1.740  -4.517 -25.971  0.00  0.00    +0.148 C 
BRANCH  10  13
ATOM     11  C   HIS A   1      -3.982  -3.990 -25.219  0.00  0.00    +0.239 C 
ATOM     12  O   HIS A   1      -3.706  -4.208 -24.029  0.00  0.00    -0.274 OA
ATOM     13  N   VAL A   2      -3.088  -4.035 -26.201  0.00  0.00    -0.297 N 
ATOM     14  H   VAL A   2      -3.361  -3.718 -27.153  0.00  0.00    +0.150 HD
BRANCH  11  15
ATOM     15  CA  HIS A   1      -5.390  -3.637 -25.651  0.00  0.00    +0.151 C 
BRANCH  15  16
ATOM     16  N   HIS A   1      -6.173  -4.851 -25.775  0.00  0.00    -0.238 NA
ATOM     17  H   HIS A   1      -6.621  -5.240 -24.921  0.00  0.00    +0.142 HD
ENDBRANCH  15  16
BRANCH  15  18
ATOM     18  CB  HIS A   1      -6.028  -2.685 -24.655  0.00  0.00    +0.074 C 
BRANCH  18  19
ATOM     19  CG  HIS A   1      -7.444  -2.332 -24.978  0.00  0.00    +0.082 A 
ATOM     20  ND1 HIS A   1      -8.444  -2.345 -24.031  0.00  0.00    -0.227 NA
ATOM     21  CE1 HIS A   1      -9.585  -1.994 -24.594  0.00  0.00    +0.199 A 
ATOM     22  NE2 HIS A   1      -9.366  -1.777 -25.879  0.00  0.00    -0.221 NA
ATOM     23  CD2 HIS A   1      -8.035  -1.984 -26.146  0.00  0.00    +0.115 A 
ENDBRANCH  18  19
ENDBRANCH  15  18
ENDBRANCH  11  15
ENDBRANCH  10  13
BRANCH  10  24
ATOM     24  CB  VAL A   2      -1.144  -5.174 -27.229  0.00  0.00    +0.027 C 
ATOM     25  CG2 VAL A   2       0.140  -5.943 -26.879  0.00  0.00    +0.002 C 
ATOM     26  CG1 VAL A   2      -2.171  -6.112 -27.904  0.00  0.00    +0.002 C 
ENDBRANCH  10  24
ENDBRANCH   6  10
ENDBRANCH   5   7
BRANCH   5  27
ATOM     27  CB  MET A   3       0.493  -2.743 -22.116  0.00  0.00    +0.041 C 
BRANCH  27  28
ATOM     28  CG  MET A   3      -0.899  -2.683 -21.491  0.00  0.00    +0.060 C 
BRANCH  28  29
ATOM     29  SD  MET A   3      -0.919  -3.042 -19.726  0.00  0.00    -0.139 S 
ATOM     30  CE  MET A   3      -1.187  -4.770 -19.687  0.00  0.00    +0.069 C 
ENDBRANCH  28  29
ENDBRANCH  27  28
ENDBRANCH   5  27
ENDBRANCH   1   5
BRANCH   3  31
ATOM     31  CA  THR A   4       3.249  -1.813 -26.184  0.00  0.00    +0.176 C 
BRANCH  31  32
ATOM     32  C   THR A   4       3.950  -0.506 -25.803  0.00  0.00    +0.243 C 
ATOM     33  N   TYR A   5       4.289  -0.393 -24.524  0.00  0.00    -0.297 N 
ATOM     34  H   TYR A   5       3.967  -1.123 -23.856  0.00  0.00    +0.150 HD
ATOM     35  O   THR A   4       4.168   0.375 -26.640  0.00  0.00    -0.273 OA
BRANCH  33  36
ATOM     36  CA  TYR A   5       5.096   0.714 -24.016  0.00  0.00    +0.153 C 
BRANCH  36  37
ATOM     37  C   TYR A   5       5.819   0.250 -22.753  0.00  0.00    +0.241 C 
ATOM     38  N   ASP A   6       6.681   1.110 -22.198  0.00  0.00    -0.298 N 
ATOM     39  H   ASP A   6       6.716   2.079 -22.575  0.00  0.00    +0.150 HD
ATOM     40  O   TYR A   5       5.611  -0.883 -22.319  0.00  0.00    -0.273 OA
BRANCH  38  41
ATOM     41  CA  ASP A   6       7.587   0.766 -21.081  0.00  0.00    +0.148 C 
BRANCH  41  42
ATOM     42  C   ASP A   6       8.487  -0.393 -21.468  0.00  0.00    +0.227 C 
ATOM     43  O   ASP A   6       8.843  -1.240 -20.633  0.00  0.00    -0.286 OA
ENDBRANCH  41  42
BRANCH  41  44
ATOM     44  CB  ASP A   6       6.826   0.437 -19.793  0.00  0.00    +0.142 C 
BRANCH  44  45
ATOM     45  CG  ASP A   6       5.714   1.434 -19.500  0.00  0.00    +0.367 C 
ATOM     46  OD2 ASP A   6       4.563   0.994 -19.341  0.00  0.00    -0.246 OA
ATOM     47  OD1 ASP A   6       5.997   2.643 -19.427  0.00  0.00    -0.246 OA
ENDBRANCH  44  45
ENDBRANCH  41  44
ENDBRANCH  38  41
ENDBRANCH  36  37
BRANCH  36  48
ATOM     48  CB  TYR A   5       4.246   1.975 -23.781  0.00  0.00    +0.055 C 
BRANCH  48  49
ATOM     49  CG  TYR A   5       2.809   1.725 -23.352  0.00  0.00    -0.020 A 
ATOM     50  CD2 TYR A   5       2.512   1.226 -22.077  0.00  0.00    -0.001 A 
ATOM     51  CE2 TYR A   5       1.179   1.027 -21.672  0.00  0.00    +0.036 A 
ATOM     52  CZ  TYR A   5       0.144   1.334 -22.552  0.00  0.00    +0.134 A 
ATOM     53  CE1 TYR A   5       0.413   1.838 -23.815  0.00  0.00    +0.036 A 
ATOM     54  CD1 TYR A   5       1.741   2.036 -24.210  0.00  0.00    -0.001 A 
BRANCH  52  55
ATOM     55  OH  TYR A   5      -1.165   1.146 -22.169  0.00  0.00    -0.506 OA
ATOM     56  HH  TYR A   5      -1.189   0.783 -21.248  0.00  0.00    +0.292 HD
ENDBRANCH  52  55
ENDBRANCH  48  49
ENDBRANCH  36  48
ENDBRANCH  33  36
ENDBRANCH  31  32
BRANCH  31  57
ATOM     57  CB  THR A   4       3.057  -1.877 -27.724  0.00  0.00    +0.137 C 
ATOM     58  CG2 THR A   4       2.736  -3.278 -28.154  0.00  0.00    +0.034 C 
BRANCH  57  59
ATOM     59  OG1 THR A   4       1.969  -1.020 -28.121  0.00  0.00    -0.382 OA
ATOM     60  HG1 THR A   4       2.171  -0.088 -27.856  0.00  0.00    +0.210 HD
ENDBRANCH  57  59
ENDBRANCH  31  57
ENDBRANCH   3  31
TORSDOF 25
REMARK  Name = ../refined-set-2016/3rm4/3rm4_pocket.pdb
REMARK  215 active torsions:
REMARK  status: ('A' for Active; 'I' for Inactive)
REMARK    1  A    between atoms: _1  and  _3
REMARK    2  A    between atoms: _3  and  _4
REMARK    3  A    between atoms: _3  and  _6
REMARK    4  A    between atoms: _6  and  _7
REMARK    5  A    between atoms: _12  and  _13
REMARK    6  A    between atoms: _15  and  _17
REMARK    7  A    between atoms: _17  and  _18
REMARK    8  A    between atoms: _17  and  _20
REMARK    9  A    between atoms: _20  and  _21
REMARK   10  A    between atoms: _24  and  _26
REMARK   11  A    between atoms: _26  and  _27
REMARK   12  A    between atoms: _26  and  _29
REMARK   13  A    between atoms: _29  and  _30
REMARK   14  A    between atoms: _40  and  _42
REMARK   15  A    between atoms: _42  and  _43
REMARK   16  A    between atoms: _42  and  _45
REMARK   17  A    between atoms: _45  and  _46
REMARK   18  A    between atoms: _46  and  _47
REMARK   19  A    between atoms: _47  and  _48
REMARK   20  A    between atoms: _57  and  _59
REMARK   21  A    between atoms: _59  and  _60
REMARK   22  A    between atoms: _59  and  _62
REMARK   23  A    between atoms: _62  and  _63
REMARK   24  A    between atoms: _66  and  _68
REMARK   25  A    between atoms: _68  and  _69
REMARK   26  A    between atoms: _72  and  _74
REMARK   27  A    between atoms: _74  and  _75
REMARK   28  A    between atoms: _74  and  _77
REMARK   29  A    between atoms: _77  and  _78
REMARK   30  A    between atoms: _84  and  _86
REMARK   31  A    between atoms: _86  and  _87
REMARK   32  A    between atoms: _90  and  _92
REMARK   33  A    between atoms: _92  and  _93
REMARK   34  A    between atoms: _92  and  _95
REMARK   35  A    between atoms: _95  and  _96
REMARK   36  A    between atoms: _99  and  _101
REMARK   37  A    between atoms: _101  and  _102
REMARK   38  A    between atoms: _104  and  _106
REMARK   39  A    between atoms: _106  and  _107
REMARK   40  A    between atoms: _109  and  _111
REMARK   41  A    between atoms: _111  and  _112
REMARK   42  A    between atoms: _111  and  _114
REMARK   43  A    between atoms: _114  and  _115
REMARK   44  A    between atoms: _125  and  _127
REMARK   45  A    between atoms: _127  and  _128
REMARK   46  A    between atoms: _127  and  _130
REMARK   47  A    between atoms: _130  and  _131
REMARK   48  A    between atoms: _136  and  _138
REMARK   49  A    between atoms: _138  and  _139
REMARK   50  A    between atoms: _138  and  _141
REMARK   51  A    between atoms: _141  and  _142
REMARK   52  A    between atoms: _145  and  _147
REMARK   53  A    between atoms: _147  and  _148
REMARK   54  A    between atoms: _147  and  _150
REMARK   55  A    between atoms: _150  and  _151
REMARK   56  A    between atoms: _157  and  _159
REMARK   57  A    between atoms: _159  and  _160
REMARK   58  A    between atoms: _159  and  _162
REMARK   59  A    between atoms: _162  and  _163
REMARK   60  A    between atoms: _166  and  _168
REMARK   61  A    between atoms: _168  and  _169
REMARK   62  A    between atoms: _168  and  _171
REMARK   63  A    between atoms: _171  and  _172
REMARK   64  A    between atoms: _182  and  _184
REMARK   65  A    between atoms: _184  and  _185
REMARK   66  A    between atoms: _184  and  _187
REMARK   67  A    between atoms: _187  and  _188
REMARK   68  A    between atoms: _188  and  _189
REMARK   69  A    between atoms: _192  and  _194
REMARK   70  A    between atoms: _194  and  _195
REMARK   71  A    between atoms: _194  and  _197
REMARK   72  A    between atoms: _197  and  _198
REMARK   73  A    between atoms: _203  and  _204
REMARK   74  A    between atoms: _206  and  _208
REMARK   75  A    between atoms: _208  and  _209
REMARK   76  A    between atoms: _208  and  _211
REMARK   77  A    between atoms: _211  and  _212
REMARK   78  A    between atoms: _212  and  _213
REMARK   79  A    between atoms: _213  and  _214
REMARK   80  A    between atoms: _223  and  _225
REMARK   81  A    between atoms: _225  and  _226
REMARK   82  A    between atoms: _229  and  _231
REMARK   83  A    between atoms: _231  and  _232
REMARK   84  A    between atoms: _235  and  _237
REMARK   85  A    between atoms: _237  and  _238
REMARK   86  A    between atoms: _237  and  _240
REMARK   87  A    between atoms: _243  and  _245
REMARK   88  A    between atoms: _245  and  _246
REMARK   89  A    between atoms: _245  and  _248
REMARK   90  A    between atoms: _248  and  _249
REMARK   91  A    between atoms: _254  and  _256
REMARK   92  A    between atoms: _256  and  _257
REMARK   93  A    between atoms: _256  and  _259
REMARK   94  A    between atoms: _262  and  _264
REMARK   95  A    between atoms: _264  and  _265
REMARK   96  A    between atoms: _264  and  _267
REMARK   97  A    between atoms: _267  and  _268
REMARK   98  A    between atoms: _268  and  _269
REMARK   99  A    between atoms: _271  and  _273
REMARK  100  A    between atoms: _273  and  _274
REMARK  101  A    between atoms: _273  and  _276
REMARK  102  A    between atoms: _276  and  _277
REMARK  103  A    between atoms: _280  and  _282
REMARK  104  A    between atoms: _282  and  _283
REMARK  105  A    between atoms: _282  and  _285
REMARK  106  A    between atoms: _285  and  _286
REMARK  107  A    between atoms: _291  and  _292
REMARK  108  A    between atoms: _294  and  _296
REMARK  109  A    between atoms: _296  and  _297
REMARK  110  A    between atoms: _296  and  _299
REMARK  111  A    between atoms: _299  and  _300
REMARK  112  A    between atoms: _303  and  _305
REMARK  113  A    between atoms: _305  and  _306
REMARK  114  A    between atoms: _305  and  _308
REMARK  115  A    between atoms: _308  and  _309
REMARK  116  A    between atoms: _319  and  _321
REMARK  117  A    between atoms: _321  and  _322
REMARK  118  A    between atoms: _321  and  _324
REMARK  119  A    between atoms: _324  and  _325
REMARK  120  A    between atoms: _330  and  _332
REMARK  121  A    between atoms: _332  and  _333
REMARK  122  A    between atoms: _335  and  _337
REMARK  123  A    between atoms: _337  and  _338
REMARK  124  A    between atoms: _337  and  _340
REMARK  125  A    between atoms: _340  and  _341
REMARK  126  A    between atoms: _348  and  _349
REMARK  127  A    between atoms: _354  and  _356
REMARK  128  A    between atoms: _356  and  _357
REMARK  129  A    between atoms: _356  and  _359
REMARK  130  A    between atoms: _359  and  _360
REMARK  131  A    between atoms: _363  and  _365
REMARK  132  A    between atoms: _365  and  _366
REMARK  133  A    between atoms: _365  and  _368
REMARK  134  A    between atoms: _368  and  _369
REMARK  135  A    between atoms: _374  and  _375
REMARK  136  A    between atoms: _377  and  _379
REMARK  137  A    between atoms: _379  and  _380
REMARK  138  A    between atoms: _382  and  _384
REMARK  139  A    between atoms: _384  and  _385
REMARK  140  A    between atoms: _384  and  _387
REMARK  141  A    between atoms: _387  and  _388
REMARK  142  A    between atoms: _393  and  _395
REMARK  143  A    between atoms: _395  and  _396
REMARK  144  A    between atoms: _398  and  _400
REMARK  145  A    between atoms: _400  and  _401
REMARK  146  A    between atoms: _400  and  _403
REMARK  147  A    between atoms: _403  and  _404
REMARK  148  A    between atoms: _409  and  _410
REMARK  149  A    between atoms: _412  and  _414
REMARK  150  A    between atoms: _414  and  _415
REMARK  151  A    between atoms: _418  and  _420
REMARK  152  A    between atoms: _420  and  _421
REMARK  153  A    between atoms: _420  and  _423
REMARK  154  A    between atoms: _423  and  _424
REMARK  155  A    between atoms: _424  and  _425
REMARK  156  A    between atoms: _425  and  _426
REMARK  157  A    between atoms: _426  and  _427
REMARK  158  A    between atoms: _431  and  _433
REMARK  159  A    between atoms: _433  and  _434
REMARK  160  A    between atoms: _433  and  _436
REMARK  161  A    between atoms: _436  and  _437
REMARK  162  A    between atoms: _437  and  _438
REMARK  163  A    between atoms: _441  and  _443
REMARK  164  A    between atoms: _443  and  _444
REMARK  165  A    between atoms: _443  and  _446
REMARK  166  A    between atoms: _446  and  _447
REMARK  167  A    between atoms: _449  and  _451
REMARK  168  A    between atoms: _451  and  _452
REMARK  169  A    between atoms: _454  and  _456
REMARK  170  A    between atoms: _456  and  _457
REMARK  171  A    between atoms: _456  and  _459
REMARK  172  A    between atoms: _459  and  _460
REMARK  173  A    between atoms: _463  and  _465
REMARK  174  A    between atoms: _465  and  _466
REMARK  175  A    between atoms: _465  and  _468
REMARK  176  A    between atoms: _468  and  _469
REMARK  177  A    between atoms: _479  and  _481
REMARK  178  A    between atoms: _481  and  _482
REMARK  179  A    between atoms: _485  and  _487
REMARK  180  A    between atoms: _487  and  _488
REMARK  181  A    between atoms: _487  and  _490
REMARK  182  A    between atoms: _490  and  _491
REMARK  183  A    between atoms: _496  and  _497
REMARK  184  A    between atoms: _499  and  _501
REMARK  185  A    between atoms: _501  and  _502
REMARK  186  A    between atoms: _501  and  _504
REMARK  187  A    between atoms: _504  and  _505
REMARK  188  A    between atoms: _510  and  _511
REMARK  189  A    between atoms: _513  and  _515
REMARK  190  A    between atoms: _515  and  _516
REMARK  191  A    between atoms: _515  and  _518
REMARK  192  A    between atoms: _518  and  _519
REMARK  193  A    between atoms: _519  and  _520
REMARK  194  A    between atoms: _523  and  _525
REMARK  195  A    between atoms: _525  and  _526
REMARK  196  A    between atoms: _525  and  _528
REMARK  197  A    between atoms: _528  and  _529
REMARK  198  A    between atoms: _529  and  _530
REMARK  199  A    between atoms: _532  and  _534
REMARK  200  A    between atoms: _534  and  _535
REMARK  201  A    between atoms: _534  and  _537
REMARK  202  A    between atoms: _540  and  _542
REMARK  203  A    between atoms: _542  and  _543
REMARK  204  A    between atoms: _542  and  _545
REMARK  205  A    between atoms: _545  and  _546
REMARK  206  A    between atoms: _556  and  _558
REMARK  207  A    between atoms: _558  and  _559
REMARK  208  A    between atoms: _562  and  _564
REMARK  209  A    between atoms: _564  and  _565
REMARK  210  A    between atoms: _564  and  _567
REMARK  211  A    between atoms: _567  and  _568
REMARK  212  A    between atoms: _571  and  _573
REMARK  213  A    between atoms: _573  and  _574
REMARK  214  A    between atoms: _573  and  _576
REMARK  215  A    between atoms: _576  and  _577
REMARK                            x       y       z     vdW  Elec       q    Type
REMARK                         _______ _______ _______ _____ _____    ______ ____
ROOT
ATOM      1  CG  TRP A   1      13.891  -1.486 -15.597  0.00  0.00    -0.002 A 
ATOM      2  CD2 TRP A   1      12.833  -0.608 -16.022  0.00  0.00    +0.013 A 
ATOM      3  CE3 TRP A   1      12.307   0.598 -15.526  0.00  0.00    +0.001 A 
ATOM      4  CZ3 TRP A   1      11.247   1.210 -16.220  0.00  0.00    +0.000 A 
ATOM      5  CH2 TRP A   1      10.716   0.627 -17.400  0.00  0.00    +0.001 A 
ATOM      6  CZ2 TRP A   1      11.212  -0.556 -17.898  0.00  0.00    +0.017 A 
ATOM      7  CE2 TRP A   1      12.277  -1.164 -17.203  0.00  0.00    +0.056 A 
ATOM      8  NE1 TRP A   1      12.960  -2.324 -17.471  0.00  0.00    -0.352 N 
ATOM      9  HE1 TRP A   1      12.781  -2.957 -18.276  0.00  0.00    +0.166 HD
ATOM     10  CD1 TRP A   1      13.921  -2.515 -16.503  0.00  0.00    +0.068 A 
ENDROOT
BRANCH   1  11
ATOM     11  CB  TRP A   1      14.771  -1.320 -14.382  0.00  0.00    +0.053 C 
BRANCH  11  12
ATOM     12  CA  TRP A   1      16.058  -0.502 -14.599  0.00  0.00    +0.137 C 
BRANCH  12  13
ATOM     13  N   TRP A   1      15.792   0.777 -15.281  0.00  0.00    -0.239 NA
ATOM     14  H   TRP A   1      14.818   1.012 -15.560  0.00  0.00    +0.142 HD
ENDBRANCH  12  13
BRANCH  12  15
ATOM     15  C   TRP A   1      17.126  -1.317 -15.336  0.00  0.00    +0.224 C 
ATOM     16  O   TRP A   1      17.840  -2.123 -14.734  0.00  0.00    -0.287 OA
ENDBRANCH  12  15
ENDBRANCH  11  12
ENDBRANCH   1  11
TORSDOF 4
REMARK  Name = ../refined-set-2016/3rm4/3rm4_pocket.pdb
REMARK  215 active torsions:
REMARK  status: ('A' for Active; 'I' for Inactive)
REMARK    1  A    between atoms: _1  and  _3
REMARK    2  A    between atoms: _3  and  _4
REMARK    3  A    between atoms: _3  and  _6
REMARK    4  A    between atoms: _6  and  _7
REMARK    5  A    between atoms: _12  and  _13
REMARK    6  A    between atoms: _15  and  _17
REMARK    7  A    between atoms: _17  and  _18
REMARK    8  A    between atoms: _17  and  _20
REMARK    9  A    between atoms: _20  and  _21
REMARK   10  A    between atoms: _24  and  _26
REMARK   11  A    between atoms: _26  and  _27
REMARK   12  A    between atoms: _26  and  _29
REMARK   13  A    between atoms: _29  and  _30
REMARK   14  A    between atoms: _40  and  _42
REMARK   15  A    between atoms: _42  and  _43
REMARK   16  A    between atoms: _42  and  _45
REMARK   17  A    between atoms: _45  and  _46
REMARK   18  A    between atoms: _46  and  _47
REMARK   19  A    between atoms: _47  and  _48
REMARK   20  A    between atoms: _57  and  _59
REMARK   21  A    between atoms: _59  and  _60
REMARK   22  A    between atoms: _59  and  _62
REMARK   23  A    between atoms: _62  and  _63
REMARK   24  A    between atoms: _66  and  _68
REMARK   25  A    between atoms: _68  and  _69
REMARK   26  A    between atoms: _72  and  _74
REMARK   27  A    between atoms: _74  and  _75
REMARK   28  A    between atoms: _74  and  _77
REMARK   29  A    between atoms: _77  and  _78
REMARK   30  A    between atoms: _84  and  _86
REMARK   31  A    between atoms: _86  and  _87
REMARK   32  A    between atoms: _90  and  _92
REMARK   33  A    between atoms: _92  and  _93
REMARK   34  A    between atoms: _92  and  _95
REMARK   35  A    between atoms: _95  and  _96
REMARK   36  A    between atoms: _99  and  _101
REMARK   37  A    between atoms: _101  and  _102
REMARK   38  A    between atoms: _104  and  _106
REMARK   39  A    between atoms: _106  and  _107
REMARK   40  A    between atoms: _109  and  _111
REMARK   41  A    between atoms: _111  and  _112
REMARK   42  A    between atoms: _111  and  _114
REMARK   43  A    between atoms: _114  and  _115
REMARK   44  A    between atoms: _125  and  _127
REMARK   45  A    between atoms: _127  and  _128
REMARK   46  A    between atoms: _127  and  _130
REMARK   47  A    between atoms: _130  and  _131
REMARK   48  A    between atoms: _136  and  _138
REMARK   49  A    between atoms: _138  and  _139
REMARK   50  A    between atoms: _138  and  _141
REMARK   51  A    between atoms: _141  and  _142
REMARK   52  A    between atoms: _145  and  _147
REMARK   53  A    between atoms: _147  and  _148
REMARK   54  A    between atoms: _147  and  _150
REMARK   55  A    between atoms: _150  and  _151
REMARK   56  A    between atoms: _157  and  _159
REMARK   57  A    between atoms: _159  and  _160
REMARK   58  A    between atoms: _159  and  _162
REMARK   59  A    between atoms: _162  and  _163
REMARK   60  A    between atoms: _166  and  _168
REMARK   61  A    between atoms: _168  and  _169
REMARK   62  A    between atoms: _168  and  _171
REMARK   63  A    between atoms: _171  and  _172
REMARK   64  A    between atoms: _182  and  _184
REMARK   65  A    between atoms: _184  and  _185
REMARK   66  A    between atoms: _184  and  _187
REMARK   67  A    between atoms: _187  and  _188
REMARK   68  A    between atoms: _188  and  _189
REMARK   69  A    between atoms: _192  and  _194
REMARK   70  A    between atoms: _194  and  _195
REMARK   71  A    between atoms: _194  and  _197
REMARK   72  A    between atoms: _197  and  _198
REMARK   73  A    between atoms: _203  and  _204
REMARK   74  A    between atoms: _206  and  _208
REMARK   75  A    between atoms: _208  and  _209
REMARK   76  A    between atoms: _208  and  _211
REMARK   77  A    between atoms: _211  and  _212
REMARK   78  A    between atoms: _212  and  _213
REMARK   79  A    between atoms: _213  and  _214
REMARK   80  A    between atoms: _223  and  _225
REMARK   81  A    between atoms: _225  and  _226
REMARK   82  A    between atoms: _229  and  _231
REMARK   83  A    between atoms: _231  and  _232
REMARK   84  A    between atoms: _235  and  _237
REMARK   85  A    between atoms: _237  and  _238
REMARK   86  A    between atoms: _237  and  _240
REMARK   87  A    between atoms: _243  and  _245
REMARK   88  A    between atoms: _245  and  _246
REMARK   89  A    between atoms: _245  and  _248
REMARK   90  A    between atoms: _248  and  _249
REMARK   91  A    between atoms: _254  and  _256
REMARK   92  A    between atoms: _256  and  _257
REMARK   93  A    between atoms: _256  and  _259
REMARK   94  A    between atoms: _262  and  _264
REMARK   95  A    between atoms: _264  and  _265
REMARK   96  A    between atoms: _264  and  _267
REMARK   97  A    between atoms: _267  and  _268
REMARK   98  A    between atoms: _268  and  _269
REMARK   99  A    between atoms: _271  and  _273
REMARK  100  A    between atoms: _273  and  _274
REMARK  101  A    between atoms: _273  and  _276
REMARK  102  A    between atoms: _276  and  _277
REMARK  103  A    between atoms: _280  and  _282
REMARK  104  A    between atoms: _282  and  _283
REMARK  105  A    between atoms: _282  and  _285
REMARK  106  A    between atoms: _285  and  _286
REMARK  107  A    between atoms: _291  and  _292
REMARK  108  A    between atoms: _294  and  _296
REMARK  109  A    between atoms: _296  and  _297
REMARK  110  A    between atoms: _296  and  _299
REMARK  111  A    between atoms: _299  and  _300
REMARK  112  A    between atoms: _303  and  _305
REMARK  113  A    between atoms: _305  and  _306
REMARK  114  A    between atoms: _305  and  _308
REMARK  115  A    between atoms: _308  and  _309
REMARK  116  A    between atoms: _319  and  _321
REMARK  117  A    between atoms: _321  and  _322
REMARK  118  A    between atoms: _321  and  _324
REMARK  119  A    between atoms: _324  and  _325
REMARK  120  A    between atoms: _330  and  _332
REMARK  121  A    between atoms: _332  and  _333
REMARK  122  A    between atoms: _335  and  _337
REMARK  123  A    between atoms: _337  and  _338
REMARK  124  A    between atoms: _337  and  _340
REMARK  125  A    between atoms: _340  and  _341
REMARK  126  A    between atoms: _348  and  _349
REMARK  127  A    between atoms: _354  and  _356
REMARK  128  A    between atoms: _356  and  _357
REMARK  129  A    between atoms: _356  and  _359
REMARK  130  A    between atoms: _359  and  _360
REMARK  131  A    between atoms: _363  and  _365
REMARK  132  A    between atoms: _365  and  _366
REMARK  133  A    between atoms: _365  and  _368
REMARK  134  A    between atoms: _368  and  _369
REMARK  135  A    between atoms: _374  and  _375
REMARK  136  A    between atoms: _377  and  _379
REMARK  137  A    between atoms: _379  and  _380
REMARK  138  A    between atoms: _382  and  _384
REMARK  139  A    between atoms: _384  and  _385
REMARK  140  A    between atoms: _384  and  _387
REMARK  141  A    between atoms: _387  and  _388
REMARK  142  A    between atoms: _393  and  _395
REMARK  143  A    between atoms: _395  and  _396
REMARK  144  A    between atoms: _398  and  _400
REMARK  145  A    between atoms: _400  and  _401
REMARK  146  A    between atoms: _400  and  _403
REMARK  147  A    between atoms: _403  and  _404
REMARK  148  A    between atoms: _409  and  _410
REMARK  149  A    between atoms: _412  and  _414
REMARK  150  A    between atoms: _414  and  _415
REMARK  151  A    between atoms: _418  and  _420
REMARK  152  A    between atoms: _420  and  _421
REMARK  153  A    between atoms: _420  and  _423
REMARK  154  A    between atoms: _423  and  _424
REMARK  155  A    between atoms: _424  and  _425
REMARK  156  A    between atoms: _425  and  _426
REMARK  157  A    between atoms: _426  and  _427
REMARK  158  A    between atoms: _431  and  _433
REMARK  159  A    between atoms: _433  and  _434
REMARK  160  A    between atoms: _433  and  _436
REMARK  161  A    between atoms: _436  and  _437
REMARK  162  A    between atoms: _437  and  _438
REMARK  163  A    between atoms: _441  and  _443
REMARK  164  A    between atoms: _443  and  _444
REMARK  165  A    between atoms: _443  and  _446
REMARK  166  A    between atoms: _446  and  _447
REMARK  167  A    between atoms: _449  and  _451
REMARK  168  A    between atoms: _451  and  _452
REMARK  169  A    between atoms: _454  and  _456
REMARK  170  A    between atoms: _456  and  _457
REMARK  171  A    between atoms: _456  and  _459
REMARK  172  A    between atoms: _459  and  _460
REMARK  173  A    between atoms: _463  and  _465
REMARK  174  A    between atoms: _465  and  _466
REMARK  175  A    between atoms: _465  and  _468
REMARK  176  A    between atoms: _468  and  _469
REMARK  177  A    between atoms: _479  and  _481
REMARK  178  A    between atoms: _481  and  _482
REMARK  179  A    between atoms: _485  and  _487
REMARK  180  A    between atoms: _487  and  _488
REMARK  181  A    between atoms: _487  and  _490
REMARK  182  A    between atoms: _490  and  _491
REMARK  183  A    between atoms: _496  and  _497
REMARK  184  A    between atoms: _499  and  _501
REMARK  185  A    between atoms: _501  and  _502
REMARK  186  A    between atoms: _501  and  _504
REMARK  187  A    between atoms: _504  and  _505
REMARK  188  A    between atoms: _510  and  _511
REMARK  189  A    between atoms: _513  and  _515
REMARK  190  A    between atoms: _515  and  _516
REMARK  191  A    between atoms: _515  and  _518
REMARK  192  A    between atoms: _518  and  _519
REMARK  193  A    between atoms: _519  and  _520
REMARK  194  A    between atoms: _523  and  _525
REMARK  195  A    between atoms: _525  and  _526
REMARK  196  A    between atoms: _525  and  _528
REMARK  197  A    between atoms: _528  and  _529
REMARK  198  A    between atoms: _529  and  _530
REMARK  199  A    between atoms: _532  and  _534
REMARK  200  A    between atoms: _534  and  _535
REMARK  201  A    between atoms: _534  and  _537
REMARK  202  A    between atoms: _540  and  _542
REMARK  203  A    between atoms: _542  and  _543
REMARK  204  A    between atoms: _542  and  _545
REMARK  205  A    between atoms: _545  and  _546
REMARK  206  A    between atoms: _556  and  _558
REMARK  207  A    between atoms: _558  and  _559
REMARK  208  A    between atoms: _562  and  _564
REMARK  209  A    between atoms: _564  and  _565
REMARK  210  A    between atoms: _564  and  _567
REMARK  211  A    between atoms: _567  and  _568
REMARK  212  A    between atoms: _571  and  _573
REMARK  213  A    between atoms: _573  and  _574
REMARK  214  A    between atoms: _573  and  _576
REMARK  215  A    between atoms: _576  and  _577
REMARK                            x       y       z     vdW  Elec       q    Type
REMARK                         _______ _______ _______ _____ _____    ______ ____
ROOT
ATOM      1  CB  ASN A   1       8.849   4.949 -24.019  0.00  0.00    +0.110 C 
ENDROOT
BRANCH   1   2
ATOM      2  CG  ASN A   1       7.622   4.649 -23.180  0.00  0.00    +0.221 C 
ATOM      3  OD1 ASN A   1       7.604   3.708 -22.388  0.00  0.00    -0.275 OA
ATOM      4  ND2 ASN A   1       6.595   5.468 -23.339  0.00  0.00    -0.329 N 
ATOM      5 HD21 ASN A   1       5.728   5.329 -22.782  0.00  0.00    +0.145 HD
ATOM      6 HD22 ASN A   1       6.655   6.251 -24.021  0.00  0.00    +0.145 HD
ENDBRANCH   1   2
BRANCH   1   7
ATOM      7  CA  ASN A   1       9.647   3.689 -24.395  0.00  0.00    +0.142 C 
BRANCH   7   8
ATOM      8  N   ASN A   1      10.863   4.081 -25.100  0.00  0.00    -0.239 NA
ATOM      9  H   ASN A   1      10.960   5.069 -25.408  0.00  0.00    +0.142 HD
ENDBRANCH   7   8
BRANCH   7  10
ATOM     10  C   ASN A   1       8.809   2.741 -25.241  0.00  0.00    +0.225 C 
ATOM     11  O   ASN A   1       8.399   1.669 -24.783  0.00  0.00    -0.287 OA
ENDBRANCH   7  10
ENDBRANCH   1   7
TORSDOF 4
REMARK  Name = ../refined-set-2016/3rm4/3rm4_pocket.pdb
REMARK  215 active torsions:
REMARK  status: ('A' for Active; 'I' for Inactive)
REMARK    1  A    between atoms: _1  and  _3
REMARK    2  A    between atoms: _3  and  _4
REMARK    3  A    between atoms: _3  and  _6
REMARK    4  A    between atoms: _6  and  _7
REMARK    5  A    between atoms: _12  and  _13
REMARK    6  A    between atoms: _15  and  _17
REMARK    7  A    between atoms: _17  and  _18
REMARK    8  A    between atoms: _17  and  _20
REMARK    9  A    between atoms: _20  and  _21
REMARK   10  A    between atoms: _24  and  _26
REMARK   11  A    between atoms: _26  and  _27
REMARK   12  A    between atoms: _26  and  _29
REMARK   13  A    between atoms: _29  and  _30
REMARK   14  A    between atoms: _40  and  _42
REMARK   15  A    between atoms: _42  and  _43
REMARK   16  A    between atoms: _42  and  _45
REMARK   17  A    between atoms: _45  and  _46
REMARK   18  A    between atoms: _46  and  _47
REMARK   19  A    between atoms: _47  and  _48
REMARK   20  A    between atoms: _57  and  _59
REMARK   21  A    between atoms: _59  and  _60
REMARK   22  A    between atoms: _59  and  _62
REMARK   23  A    between atoms: _62  and  _63
REMARK   24  A    between atoms: _66  and  _68
REMARK   25  A    between atoms: _68  and  _69
REMARK   26  A    between atoms: _72  and  _74
REMARK   27  A    between atoms: _74  and  _75
REMARK   28  A    between atoms: _74  and  _77
REMARK   29  A    between atoms: _77  and  _78
REMARK   30  A    between atoms: _84  and  _86
REMARK   31  A    between atoms: _86  and  _87
REMARK   32  A    between atoms: _90  and  _92
REMARK   33  A    between atoms: _92  and  _93
REMARK   34  A    between atoms: _92  and  _95
REMARK   35  A    between atoms: _95  and  _96
REMARK   36  A    between atoms: _99  and  _101
REMARK   37  A    between atoms: _101  and  _102
REMARK   38  A    between atoms: _104  and  _106
REMARK   39  A    between atoms: _106  and  _107
REMARK   40  A    between atoms: _109  and  _111
REMARK   41  A    between atoms: _111  and  _112
REMARK   42  A    between atoms: _111  and  _114
REMARK   43  A    between atoms: _114  and  _115
REMARK   44  A    between atoms: _125  and  _127
REMARK   45  A    between atoms: _127  and  _128
REMARK   46  A    between atoms: _127  and  _130
REMARK   47  A    between atoms: _130  and  _131
REMARK   48  A    between atoms: _136  and  _138
REMARK   49  A    between atoms: _138  and  _139
REMARK   50  A    between atoms: _138  and  _141
REMARK   51  A    between atoms: _141  and  _142
REMARK   52  A    between atoms: _145  and  _147
REMARK   53  A    between atoms: _147  and  _148
REMARK   54  A    between atoms: _147  and  _150
REMARK   55  A    between atoms: _150  and  _151
REMARK   56  A    between atoms: _157  and  _159
REMARK   57  A    between atoms: _159  and  _160
REMARK   58  A    between atoms: _159  and  _162
REMARK   59  A    between atoms: _162  and  _163
REMARK   60  A    between atoms: _166  and  _168
REMARK   61  A    between atoms: _168  and  _169
REMARK   62  A    between atoms: _168  and  _171
REMARK   63  A    between atoms: _171  and  _172
REMARK   64  A    between atoms: _182  and  _184
REMARK   65  A    between atoms: _184  and  _185
REMARK   66  A    between atoms: _184  and  _187
REMARK   67  A    between atoms: _187  and  _188
REMARK   68  A    between atoms: _188  and  _189
REMARK   69  A    between atoms: _192  and  _194
REMARK   70  A    between atoms: _194  and  _195
REMARK   71  A    between atoms: _194  and  _197
REMARK   72  A    between atoms: _197  and  _198
REMARK   73  A    between atoms: _203  and  _204
REMARK   74  A    between atoms: _206  and  _208
REMARK   75  A    between atoms: _208  and  _209
REMARK   76  A    between atoms: _208  and  _211
REMARK   77  A    between atoms: _211  and  _212
REMARK   78  A    between atoms: _212  and  _213
REMARK   79  A    between atoms: _213  and  _214
REMARK   80  A    between atoms: _223  and  _225
REMARK   81  A    between atoms: _225  and  _226
REMARK   82  A    between atoms: _229  and  _231
REMARK   83  A    between atoms: _231  and  _232
REMARK   84  A    between atoms: _235  and  _237
REMARK   85  A    between atoms: _237  and  _238
REMARK   86  A    between atoms: _237  and  _240
REMARK   87  A    between atoms: _243  and  _245
REMARK   88  A    between atoms: _245  and  _246
REMARK   89  A    between atoms: _245  and  _248
REMARK   90  A    between atoms: _248  and  _249
REMARK   91  A    between atoms: _254  and  _256
REMARK   92  A    between atoms: _256  and  _257
REMARK   93  A    between atoms: _256  and  _259
REMARK   94  A    between atoms: _262  and  _264
REMARK   95  A    between atoms: _264  and  _265
REMARK   96  A    between atoms: _264  and  _267
REMARK   97  A    between atoms: _267  and  _268
REMARK   98  A    between atoms: _268  and  _269
REMARK   99  A    between atoms: _271  and  _273
REMARK  100  A    between atoms: _273  and  _274
REMARK  101  A    between atoms: _273  and  _276
REMARK  102  A    between atoms: _276  and  _277
REMARK  103  A    between atoms: _280  and  _282
REMARK  104  A    between atoms: _282  and  _283
REMARK  105  A    between atoms: _282  and  _285
REMARK  106  A    between atoms: _285  and  _286
REMARK  107  A    between atoms: _291  and  _292
REMARK  108  A    between atoms: _294  and  _296
REMARK  109  A    between atoms: _296  and  _297
REMARK  110  A    between atoms: _296  and  _299
REMARK  111  A    between atoms: _299  and  _300
REMARK  112  A    between atoms: _303  and  _305
REMARK  113  A    between atoms: _305  and  _306
REMARK  114  A    between atoms: _305  and  _308
REMARK  115  A    between atoms: _308  and  _309
REMARK  116  A    between atoms: _319  and  _321
REMARK  117  A    between atoms: _321  and  _322
REMARK  118  A    between atoms: _321  and  _324
REMARK  119  A    between atoms: _324  and  _325
REMARK  120  A    between atoms: _330  and  _332
REMARK  121  A    between atoms: _332  and  _333
REMARK  122  A    between atoms: _335  and  _337
REMARK  123  A    between atoms: _337  and  _338
REMARK  124  A    between atoms: _337  and  _340
REMARK  125  A    between atoms: _340  and  _341
REMARK  126  A    between atoms: _348  and  _349
REMARK  127  A    between atoms: _354  and  _356
REMARK  128  A    between atoms: _356  and  _357
REMARK  129  A    between atoms: _356  and  _359
REMARK  130  A    between atoms: _359  and  _360
REMARK  131  A    between atoms: _363  and  _365
REMARK  132  A    between atoms: _365  and  _366
REMARK  133  A    between atoms: _365  and  _368
REMARK  134  A    between atoms: _368  and  _369
REMARK  135  A    between atoms: _374  and  _375
REMARK  136  A    between atoms: _377  and  _379
REMARK  137  A    between atoms: _379  and  _380
REMARK  138  A    between atoms: _382  and  _384
REMARK  139  A    between atoms: _384  and  _385
REMARK  140  A    between atoms: _384  and  _387
REMARK  141  A    between atoms: _387  and  _388
REMARK  142  A    between atoms: _393  and  _395
REMARK  143  A    between atoms: _395  and  _396
REMARK  144  A    between atoms: _398  and  _400
REMARK  145  A    between atoms: _400  and  _401
REMARK  146  A    between atoms: _400  and  _403
REMARK  147  A    between atoms: _403  and  _404
REMARK  148  A    between atoms: _409  and  _410
REMARK  149  A    between atoms: _412  and  _414
REMARK  150  A    between atoms: _414  and  _415
REMARK  151  A    between atoms: _418  and  _420
REMARK  152  A    between atoms: _420  and  _421
REMARK  153  A    between atoms: _420  and  _423
REMARK  154  A    between atoms: _423  and  _424
REMARK  155  A    between atoms: _424  and  _425
REMARK  156  A    between atoms: _425  and  _426
REMARK  157  A    between atoms: _426  and  _427
REMARK  158  A    between atoms: _431  and  _433
REMARK  159  A    between atoms: _433  and  _434
REMARK  160  A    between atoms: _433  and  _436
REMARK  161  A    between atoms: _436  and  _437
REMARK  162  A    between atoms: _437  and  _438
REMARK  163  A    between atoms: _441  and  _443
REMARK  164  A    between atoms: _443  and  _444
REMARK  165  A    between atoms: _443  and  _446
REMARK  166  A    between atoms: _446  and  _447
REMARK  167  A    between atoms: _449  and  _451
REMARK  168  A    between atoms: _451  and  _452
REMARK  169  A    between atoms: _454  and  _456
REMARK  170  A    between atoms: _456  and  _457
REMARK  171  A    between atoms: _456  and  _459
REMARK  172  A    between atoms: _459  and  _460
REMARK  173  A    between atoms: _463  and  _465
REMARK  174  A    between atoms: _465  and  _466
REMARK  175  A    between atoms: _465  and  _468
REMARK  176  A    between atoms: _468  and  _469
REMARK  177  A    between atoms: _479  and  _481
REMARK  178  A    between atoms: _481  and  _482
REMARK  179  A    between atoms: _485  and  _487
REMARK  180  A    between atoms: _487  and  _488
REMARK  181  A    between atoms: _487  and  _490
REMARK  182  A    between atoms: _490  and  _491
REMARK  183  A    between atoms: _496  and  _497
REMARK  184  A    between atoms: _499  and  _501
REMARK  185  A    between atoms: _501  and  _502
REMARK  186  A    between atoms: _501  and  _504
REMARK  187  A    between atoms: _504  and  _505
REMARK  188  A    between atoms: _510  and  _511
REMARK  189  A    between atoms: _513  and  _515
REMARK  190  A    between atoms: _515  and  _516
REMARK  191  A    between atoms: _515  and  _518
REMARK  192  A    between atoms: _518  and  _519
REMARK  193  A    between atoms: _519  and  _520
REMARK  194  A    between atoms: _523  and  _525
REMARK  195  A    between atoms: _525  and  _526
REMARK  196  A    between atoms: _525  and  _528
REMARK  197  A    between atoms: _528  and  _529
REMARK  198  A    between atoms: _529  and  _530
REMARK  199  A    between atoms: _532  and  _534
REMARK  200  A    between atoms: _534  and  _535
REMARK  201  A    between atoms: _534  and  _537
REMARK  202  A    between atoms: _540  and  _542
REMARK  203  A    between atoms: _542  and  _543
REMARK  204  A    between atoms: _542  and  _545
REMARK  205  A    between atoms: _545  and  _546
REMARK  206  A    between atoms: _556  and  _558
REMARK  207  A    between atoms: _558  and  _559
REMARK  208  A    between atoms: _562  and  _564
REMARK  209  A    between atoms: _564  and  _565
REMARK  210  A    between atoms: _564  and  _567
REMARK  211  A    between atoms: _567  and  _568
REMARK  212  A    between atoms: _571  and  _573
REMARK  213  A    between atoms: _573  and  _574
REMARK  214  A    between atoms: _573  and  _576
REMARK  215  A    between atoms: _576  and  _577
REMARK                            x       y       z     vdW  Elec       q    Type
REMARK                         _______ _______ _______ _____ _____    ______ ____
ROOT
ATOM      1  C   THR A   4       2.570  10.483 -23.187  0.00  0.00    +0.243 C 
ATOM      2  O   THR A   4       2.281  11.433 -22.450  0.00  0.00    -0.273 OA
ATOM      3  N   TYR A   5       3.690   9.776 -23.063  0.00  0.00    -0.297 N 
ATOM      4  H   TYR A   5       3.852   8.998 -23.734  0.00  0.00    +0.150 HD
ENDROOT
BRANCH   3   5
ATOM      5  CA  TYR A   5       4.701  10.022 -22.049  0.00  0.00    +0.153 C 
BRANCH   5   6
ATOM      6  C   TYR A   5       6.007   9.346 -22.498  0.00  0.00    +0.241 C 
ATOM      7  N   GLY A   6       7.098   9.636 -21.794  0.00  0.00    -0.295 N 
ATOM      8  H   GLY A   6       7.040  10.361 -21.051  0.00  0.00    +0.150 HD
ATOM      9  O   TYR A   5       6.008   8.556 -23.453  0.00  0.00    -0.273 OA
BRANCH   7  10
ATOM     10  CA  GLY A   6       8.376   8.966 -22.034  0.00  0.00    +0.176 C 
BRANCH  10  11
ATOM     11  C   GLY A   6       9.119   8.609 -20.756  0.00  0.00    +0.243 C 
ATOM     12  O   GLY A   6       8.807   9.136 -19.682  0.00  0.00    -0.273 OA
ATOM     13  N   HIS A   7      10.100   7.711 -20.859  0.00  0.00    -0.298 N 
ATOM     14  H   HIS A   7      10.268   7.237 -21.769  0.00  0.00    +0.150 HD
BRANCH  13  15
ATOM     15  CA  HIS A   7      10.948   7.381 -19.701  0.00  0.00    +0.143 C 
BRANCH  15  16
ATOM     16  C   HIS A   7      12.206   8.219 -19.743  0.00  0.00    +0.227 C 
ATOM     17  O   HIS A   7      12.776   8.406 -20.808  0.00  0.00    -0.286 OA
ENDBRANCH  15  16
BRANCH  15  18
ATOM     18  CB  HIS A   7      11.317   5.894 -19.673  0.00  0.00    +0.075 C 
BRANCH  18  19
ATOM     19  CG  HIS A   7      10.211   5.014 -19.184  0.00  0.00    +0.082 A 
ATOM     20  ND1 HIS A   7      10.091   4.629 -17.866  0.00  0.00    -0.227 NA
ATOM     21  CE1 HIS A   7       9.012   3.878 -17.725  0.00  0.00    +0.199 A 
ATOM     22  NE2 HIS A   7       8.438   3.752 -18.907  0.00  0.00    -0.221 NA
ATOM     23  CD2 HIS A   7       9.162   4.460 -19.836  0.00  0.00    +0.115 A 
ENDBRANCH  18  19
ENDBRANCH  15  18
ENDBRANCH  13  15
ENDBRANCH  10  11
ENDBRANCH   7  10
ENDBRANCH   5   6
BRANCH   5  24
ATOM     24  CB  TYR A   5       4.260   9.452 -20.695  0.00  0.00    +0.055 C 
BRANCH  24  25
ATOM     25  CG  TYR A   5       4.138   7.931 -20.651  0.00  0.00    -0.020 A 
ATOM     26  CD2 TYR A   5       5.242   7.117 -20.339  0.00  0.00    -0.001 A 
ATOM     27  CE2 TYR A   5       5.118   5.707 -20.298  0.00  0.00    +0.036 A 
ATOM     28  CZ  TYR A   5       3.877   5.118 -20.565  0.00  0.00    +0.134 A 
ATOM     29  CE1 TYR A   5       2.782   5.906 -20.863  0.00  0.00    +0.036 A 
ATOM     30  CD1 TYR A   5       2.915   7.306 -20.912  0.00  0.00    -0.001 A 
BRANCH  28  31
ATOM     31  OH  TYR A   5       3.713   3.739 -20.532  0.00  0.00    -0.506 OA
ATOM     32  HH  TYR A   5       4.577   3.310 -20.307  0.00  0.00    +0.292 HD
ENDBRANCH  28  31
ENDBRANCH  24  25
ENDBRANCH   5  24
ENDBRANCH   3   5
BRANCH   1  33
ATOM     33  CA  THR A   4       1.657  10.047 -24.344  0.00  0.00    +0.176 C 
BRANCH  33  35
ATOM     34  C   PRO A   3       2.225   7.783 -25.074  0.00  0.00    +0.241 C 
ATOM     35  N   THR A   4       1.467   8.587 -24.335  0.00  0.00    -0.295 N 
ATOM     36  H   THR A   4       0.723   8.175 -23.737  0.00  0.00    +0.150 HD
ATOM     37  O   PRO A   3       3.038   8.209 -25.902  0.00  0.00    -0.273 OA
BRANCH  34  41
ATOM     38  C   PHE A   2       0.603   5.198 -26.459  0.00  0.00    +0.244 C 
ATOM     39  O   PHE A   2      -0.388   5.489 -25.807  0.00  0.00    -0.273 OA
ATOM     40  N   PRO A   3       1.851   5.496 -26.043  0.00  0.00    -0.272 N 
ATOM     41  CA  PRO A   3       2.059   6.272 -24.835  0.00  0.00    +0.152 C 
ATOM     42  CB  PRO A   3       3.360   5.685 -24.305  0.00  0.00    +0.031 C 
ATOM     43  CG  PRO A   3       4.155   5.459 -25.568  0.00  0.00    +0.024 C 
ATOM     44  CD  PRO A   3       3.137   5.050 -26.619  0.00  0.00    +0.094 C 
BRANCH  38  45
ATOM     45  CA  PHE A   2       0.446   4.419 -27.774  0.00  0.00    +0.153 C 
BRANCH  45  47
ATOM     46  C   GLY A   1       0.185   1.967 -27.708  0.00  0.00    +0.240 C 
ATOM     47  N   PHE A   2      -0.310   3.191 -27.494  0.00  0.00    -0.297 N 
ATOM     48  H   PHE A   2      -1.274   3.277 -27.112  0.00  0.00    +0.150 HD
ATOM     49  O   GLY A   1       1.302   1.763 -28.193  0.00  0.00    -0.274 OA
BRANCH  46  50
ATOM     50  CA  GLY A   1      -0.714   0.800 -27.327  0.00  0.00    +0.169 C 
BRANCH  50  51
ATOM     51  N   GLY A   1      -0.904  -0.187 -28.403  0.00  0.00    -0.236 NA
ATOM     52  H   GLY A   1      -0.351  -1.068 -28.377  0.00  0.00    +0.142 HD
ENDBRANCH  50  51
ENDBRANCH  46  50
ENDBRANCH  45  47
BRANCH  45  53
ATOM     53  CB  PHE A   2      -0.292   5.307 -28.782  0.00  0.00    +0.055 C 
BRANCH  53  54
ATOM     54  CG  PHE A   2      -0.212   4.840 -30.218  0.00  0.00    -0.020 A 
ATOM     55  CD2 PHE A   2      -0.925   3.731 -30.655  0.00  0.00    -0.004 A 
ATOM     56  CE2 PHE A   2      -0.864   3.321 -31.999  0.00  0.00    -0.000 A 
ATOM     57  CZ  PHE A   2      -0.098   4.045 -32.910  0.00  0.00    -0.000 A 
ATOM     58  CE1 PHE A   2       0.606   5.171 -32.474  0.00  0.00    -0.000 A 
ATOM     59  CD1 PHE A   2       0.537   5.560 -31.147  0.00  0.00    -0.004 A 
ENDBRANCH  53  54
ENDBRANCH  45  53
ENDBRANCH  38  45
ENDBRANCH  34  41
ENDBRANCH  33  35
BRANCH  33  60
ATOM     60  CB  THR A   4       0.316  10.793 -24.304  0.00  0.00    +0.137 C 
ATOM     61  CG2 THR A   4      -0.444  10.573 -25.614  0.00  0.00    +0.034 C 
BRANCH  60  62
ATOM     62  OG1 THR A   4      -0.460  10.306 -23.200  0.00  0.00    -0.382 OA
ATOM     63  HG1 THR A   4      -1.326  10.785 -23.170  0.00  0.00    +0.210 HD
ENDBRANCH  60  62
ENDBRANCH  33  60
ENDBRANCH   1  33
TORSDOF 22
REMARK  Name = ../refined-set-2016/3rm4/3rm4_pocket.pdb
REMARK  215 active torsions:
REMARK  status: ('A' for Active; 'I' for Inactive)
REMARK    1  A    between atoms: _1  and  _3
REMARK    2  A    between atoms: _3  and  _4
REMARK    3  A    between atoms: _3  and  _6
REMARK    4  A    between atoms: _6  and  _7
REMARK    5  A    between atoms: _12  and  _13
REMARK    6  A    between atoms: _15  and  _17
REMARK    7  A    between atoms: _17  and  _18
REMARK    8  A    between atoms: _17  and  _20
REMARK    9  A    between atoms: _20  and  _21
REMARK   10  A    between atoms: _24  and  _26
REMARK   11  A    between atoms: _26  and  _27
REMARK   12  A    between atoms: _26  and  _29
REMARK   13  A    between atoms: _29  and  _30
REMARK   14  A    between atoms: _40  and  _42
REMARK   15  A    between atoms: _42  and  _43
REMARK   16  A    between atoms: _42  and  _45
REMARK   17  A    between atoms: _45  and  _46
REMARK   18  A    between atoms: _46  and  _47
REMARK   19  A    between atoms: _47  and  _48
REMARK   20  A    between atoms: _57  and  _59
REMARK   21  A    between atoms: _59  and  _60
REMARK   22  A    between atoms: _59  and  _62
REMARK   23  A    between atoms: _62  and  _63
REMARK   24  A    between atoms: _66  and  _68
REMARK   25  A    between atoms: _68  and  _69
REMARK   26  A    between atoms: _72  and  _74
REMARK   27  A    between atoms: _74  and  _75
REMARK   28  A    between atoms: _74  and  _77
REMARK   29  A    between atoms: _77  and  _78
REMARK   30  A    between atoms: _84  and  _86
REMARK   31  A    between atoms: _86  and  _87
REMARK   32  A    between atoms: _90  and  _92
REMARK   33  A    between atoms: _92  and  _93
REMARK   34  A    between atoms: _92  and  _95
REMARK   35  A    between atoms: _95  and  _96
REMARK   36  A    between atoms: _99  and  _101
REMARK   37  A    between atoms: _101  and  _102
REMARK   38  A    between atoms: _104  and  _106
REMARK   39  A    between atoms: _106  and  _107
REMARK   40  A    between atoms: _109  and  _111
REMARK   41  A    between atoms: _111  and  _112
REMARK   42  A    between atoms: _111  and  _114
REMARK   43  A    between atoms: _114  and  _115
REMARK   44  A    between atoms: _125  and  _127
REMARK   45  A    between atoms: _127  and  _128
REMARK   46  A    between atoms: _127  and  _130
REMARK   47  A    between atoms: _130  and  _131
REMARK   48  A    between atoms: _136  and  _138
REMARK   49  A    between atoms: _138  and  _139
REMARK   50  A    between atoms: _138  and  _141
REMARK   51  A    between atoms: _141  and  _142
REMARK   52  A    between atoms: _145  and  _147
REMARK   53  A    between atoms: _147  and  _148
REMARK   54  A    between atoms: _147  and  _150
REMARK   55  A    between atoms: _150  and  _151
REMARK   56  A    between atoms: _157  and  _159
REMARK   57  A    between atoms: _159  and  _160
REMARK   58  A    between atoms: _159  and  _162
REMARK   59  A    between atoms: _162  and  _163
REMARK   60  A    between atoms: _166  and  _168
REMARK   61  A    between atoms: _168  and  _169
REMARK   62  A    between atoms: _168  and  _171
REMARK   63  A    between atoms: _171  and  _172
REMARK   64  A    between atoms: _182  and  _184
REMARK   65  A    between atoms: _184  and  _185
REMARK   66  A    between atoms: _184  and  _187
REMARK   67  A    between atoms: _187  and  _188
REMARK   68  A    between atoms: _188  and  _189
REMARK   69  A    between atoms: _192  and  _194
REMARK   70  A    between atoms: _194  and  _195
REMARK   71  A    between atoms: _194  and  _197
REMARK   72  A    between atoms: _197  and  _198
REMARK   73  A    between atoms: _203  and  _204
REMARK   74  A    between atoms: _206  and  _208
REMARK   75  A    between atoms: _208  and  _209
REMARK   76  A    between atoms: _208  and  _211
REMARK   77  A    between atoms: _211  and  _212
REMARK   78  A    between atoms: _212  and  _213
REMARK   79  A    between atoms: _213  and  _214
REMARK   80  A    between atoms: _223  and  _225
REMARK   81  A    between atoms: _225  and  _226
REMARK   82  A    between atoms: _229  and  _231
REMARK   83  A    between atoms: _231  and  _232
REMARK   84  A    between atoms: _235  and  _237
REMARK   85  A    between atoms: _237  and  _238
REMARK   86  A    between atoms: _237  and  _240
REMARK   87  A    between atoms: _243  and  _245
REMARK   88  A    between atoms: _245  and  _246
REMARK   89  A    between atoms: _245  and  _248
REMARK   90  A    between atoms: _248  and  _249
REMARK   91  A    between atoms: _254  and  _256
REMARK   92  A    between atoms: _256  and  _257
REMARK   93  A    between atoms: _256  and  _259
REMARK   94  A    between atoms: _262  and  _264
REMARK   95  A    between atoms: _264  and  _265
REMARK   96  A    between atoms: _264  and  _267
REMARK   97  A    between atoms: _267  and  _268
REMARK   98  A    between atoms: _268  and  _269
REMARK   99  A    between atoms: _271  and  _273
REMARK  100  A    between atoms: _273  and  _274
REMARK  101  A    between atoms: _273  and  _276
REMARK  102  A    between atoms: _276  and  _277
REMARK  103  A    between atoms: _280  and  _282
REMARK  104  A    between atoms: _282  and  _283
REMARK  105  A    between atoms: _282  and  _285
REMARK  106  A    between atoms: _285  and  _286
REMARK  107  A    between atoms: _291  and  _292
REMARK  108  A    between atoms: _294  and  _296
REMARK  109  A    between atoms: _296  and  _297
REMARK  110  A    between atoms: _296  and  _299
REMARK  111  A    between atoms: _299  and  _300
REMARK  112  A    between atoms: _303  and  _305
REMARK  113  A    between atoms: _305  and  _306
REMARK  114  A    between atoms: _305  and  _308
REMARK  115  A    between atoms: _308  and  _309
REMARK  116  A    between atoms: _319  and  _321
REMARK  117  A    between atoms: _321  and  _322
REMARK  118  A    between atoms: _321  and  _324
REMARK  119  A    between atoms: _324  and  _325
REMARK  120  A    between atoms: _330  and  _332
REMARK  121  A    between atoms: _332  and  _333
REMARK  122  A    between atoms: _335  and  _337
REMARK  123  A    between atoms: _337  and  _338
REMARK  124  A    between atoms: _337  and  _340
REMARK  125  A    between atoms: _340  and  _341
REMARK  126  A    between atoms: _348  and  _349
REMARK  127  A    between atoms: _354  and  _356
REMARK  128  A    between atoms: _356  and  _357
REMARK  129  A    between atoms: _356  and  _359
REMARK  130  A    between atoms: _359  and  _360
REMARK  131  A    between atoms: _363  and  _365
REMARK  132  A    between atoms: _365  and  _366
REMARK  133  A    between atoms: _365  and  _368
REMARK  134  A    between atoms: _368  and  _369
REMARK  135  A    between atoms: _374  and  _375
REMARK  136  A    between atoms: _377  and  _379
REMARK  137  A    between atoms: _379  and  _380
REMARK  138  A    between atoms: _382  and  _384
REMARK  139  A    between atoms: _384  and  _385
REMARK  140  A    between atoms: _384  and  _387
REMARK  141  A    between atoms: _387  and  _388
REMARK  142  A    between atoms: _393  and  _395
REMARK  143  A    between atoms: _395  and  _396
REMARK  144  A    between atoms: _398  and  _400
REMARK  145  A    between atoms: _400  and  _401
REMARK  146  A    between atoms: _400  and  _403
REMARK  147  A    between atoms: _403  and  _404
REMARK  148  A    between atoms: _409  and  _410
REMARK  149  A    between atoms: _412  and  _414
REMARK  150  A    between atoms: _414  and  _415
REMARK  151  A    between atoms: _418  and  _420
REMARK  152  A    between atoms: _420  and  _421
REMARK  153  A    between atoms: _420  and  _423
REMARK  154  A    between atoms: _423  and  _424
REMARK  155  A    between atoms: _424  and  _425
REMARK  156  A    between atoms: _425  and  _426
REMARK  157  A    between atoms: _426  and  _427
REMARK  158  A    between atoms: _431  and  _433
REMARK  159  A    between atoms: _433  and  _434
REMARK  160  A    between atoms: _433  and  _436
REMARK  161  A    between atoms: _436  and  _437
REMARK  162  A    between atoms: _437  and  _438
REMARK  163  A    between atoms: _441  and  _443
REMARK  164  A    between atoms: _443  and  _444
REMARK  165  A    between atoms: _443  and  _446
REMARK  166  A    between atoms: _446  and  _447
REMARK  167  A    between atoms: _449  and  _451
REMARK  168  A    between atoms: _451  and  _452
REMARK  169  A    between atoms: _454  and  _456
REMARK  170  A    between atoms: _456  and  _457
REMARK  171  A    between atoms: _456  and  _459
REMARK  172  A    between atoms: _459  and  _460
REMARK  173  A    between atoms: _463  and  _465
REMARK  174  A    between atoms: _465  and  _466
REMARK  175  A    between atoms: _465  and  _468
REMARK  176  A    between atoms: _468  and  _469
REMARK  177  A    between atoms: _479  and  _481
REMARK  178  A    between atoms: _481  and  _482
REMARK  179  A    between atoms: _485  and  _487
REMARK  180  A    between atoms: _487  and  _488
REMARK  181  A    between atoms: _487  and  _490
REMARK  182  A    between atoms: _490  and  _491
REMARK  183  A    between atoms: _496  and  _497
REMARK  184  A    between atoms: _499  and  _501
REMARK  185  A    between atoms: _501  and  _502
REMARK  186  A    between atoms: _501  and  _504
REMARK  187  A    between atoms: _504  and  _505
REMARK  188  A    between atoms: _510  and  _511
REMARK  189  A    between atoms: _513  and  _515
REMARK  190  A    between atoms: _515  and  _516
REMARK  191  A    between atoms: _515  and  _518
REMARK  192  A    between atoms: _518  and  _519
REMARK  193  A    between atoms: _519  and  _520
REMARK  194  A    between atoms: _523  and  _525
REMARK  195  A    between atoms: _525  and  _526
REMARK  196  A    between atoms: _525  and  _528
REMARK  197  A    between atoms: _528  and  _529
REMARK  198  A    between atoms: _529  and  _530
REMARK  199  A    between atoms: _532  and  _534
REMARK  200  A    between atoms: _534  and  _535
REMARK  201  A    between atoms: _534  and  _537
REMARK  202  A    between atoms: _540  and  _542
REMARK  203  A    between atoms: _542  and  _543
REMARK  204  A    between atoms: _542  and  _545
REMARK  205  A    between atoms: _545  and  _546
REMARK  206  A    between atoms: _556  and  _558
REMARK  207  A    between atoms: _558  and  _559
REMARK  208  A    between atoms: _562  and  _564
REMARK  209  A    between atoms: _564  and  _565
REMARK  210  A    between atoms: _564  and  _567
REMARK  211  A    between atoms: _567  and  _568
REMARK  212  A    between atoms: _571  and  _573
REMARK  213  A    between atoms: _573  and  _574
REMARK  214  A    between atoms: _573  and  _576
REMARK  215  A    between atoms: _576  and  _577
REMARK                            x       y       z     vdW  Elec       q    Type
REMARK                         _______ _______ _______ _____ _____    ______ ____
ROOT
ATOM      1  CA  GLY A   1       8.321  16.197 -13.712  0.00  0.00    +0.156 C 
ENDROOT
BRANCH   1   2
ATOM      2  N   GLY A   1       8.776  14.938 -13.141  0.00  0.00    -0.238 NA
ATOM      3  H   GLY A   1       8.249  14.067 -13.353  0.00  0.00    +0.142 HD
ENDBRANCH   1   2
BRANCH   1   4
ATOM      4  C   GLY A   1       7.541  17.018 -12.704  0.00  0.00    +0.226 C 
ATOM      5  O   GLY A   1       7.071  16.480 -11.697  0.00  0.00    -0.287 OA
ENDBRANCH   1   4
TORSDOF 2
REMARK  Name = ../refined-set-2016/3rm4/3rm4_pocket.pdb
REMARK  215 active torsions:
REMARK  status: ('A' for Active; 'I' for Inactive)
REMARK    1  A    between atoms: _1  and  _3
REMARK    2  A    between atoms: _3  and  _4
REMARK    3  A    between atoms: _3  and  _6
REMARK    4  A    between atoms: _6  and  _7
REMARK    5  A    between atoms: _12  and  _13
REMARK    6  A    between atoms: _15  and  _17
REMARK    7  A    between atoms: _17  and  _18
REMARK    8  A    between atoms: _17  and  _20
REMARK    9  A    between atoms: _20  and  _21
REMARK   10  A    between atoms: _24  and  _26
REMARK   11  A    between atoms: _26  and  _27
REMARK   12  A    between atoms: _26  and  _29
REMARK   13  A    between atoms: _29  and  _30
REMARK   14  A    between atoms: _40  and  _42
REMARK   15  A    between atoms: _42  and  _43
REMARK   16  A    between atoms: _42  and  _45
REMARK   17  A    between atoms: _45  and  _46
REMARK   18  A    between atoms: _46  and  _47
REMARK   19  A    between atoms: _47  and  _48
REMARK   20  A    between atoms: _57  and  _59
REMARK   21  A    between atoms: _59  and  _60
REMARK   22  A    between atoms: _59  and  _62
REMARK   23  A    between atoms: _62  and  _63
REMARK   24  A    between atoms: _66  and  _68
REMARK   25  A    between atoms: _68  and  _69
REMARK   26  A    between atoms: _72  and  _74
REMARK   27  A    between atoms: _74  and  _75
REMARK   28  A    between atoms: _74  and  _77
REMARK   29  A    between atoms: _77  and  _78
REMARK   30  A    between atoms: _84  and  _86
REMARK   31  A    between atoms: _86  and  _87
REMARK   32  A    between atoms: _90  and  _92
REMARK   33  A    between atoms: _92  and  _93
REMARK   34  A    between atoms: _92  and  _95
REMARK   35  A    between atoms: _95  and  _96
REMARK   36  A    between atoms: _99  and  _101
REMARK   37  A    between atoms: _101  and  _102
REMARK   38  A    between atoms: _104  and  _106
REMARK   39  A    between atoms: _106  and  _107
REMARK   40  A    between atoms: _109  and  _111
REMARK   41  A    between atoms: _111  and  _112
REMARK   42  A    between atoms: _111  and  _114
REMARK   43  A    between atoms: _114  and  _115
REMARK   44  A    between atoms: _125  and  _127
REMARK   45  A    between atoms: _127  and  _128
REMARK   46  A    between atoms: _127  and  _130
REMARK   47  A    between atoms: _130  and  _131
REMARK   48  A    between atoms: _136  and  _138
REMARK   49  A    between atoms: _138  and  _139
REMARK   50  A    between atoms: _138  and  _141
REMARK   51  A    between atoms: _141  and  _142
REMARK   52  A    between atoms: _145  and  _147
REMARK   53  A    between atoms: _147  and  _148
REMARK   54  A    between atoms: _147  and  _150
REMARK   55  A    between atoms: _150  and  _151
REMARK   56  A    between atoms: _157  and  _159
REMARK   57  A    between atoms: _159  and  _160
REMARK   58  A    between atoms: _159  and  _162
REMARK   59  A    between atoms: _162  and  _163
REMARK   60  A    between atoms: _166  and  _168
REMARK   61  A    between atoms: _168  and  _169
REMARK   62  A    between atoms: _168  and  _171
REMARK   63  A    between atoms: _171  and  _172
REMARK   64  A    between atoms: _182  and  _184
REMARK   65  A    between atoms: _184  and  _185
REMARK   66  A    between atoms: _184  and  _187
REMARK   67  A    between atoms: _187  and  _188
REMARK   68  A    between atoms: _188  and  _189
REMARK   69  A    between atoms: _192  and  _194
REMARK   70  A    between atoms: _194  and  _195
REMARK   71  A    between atoms: _194  and  _197
REMARK   72  A    between atoms: _197  and  _198
REMARK   73  A    between atoms: _203  and  _204
REMARK   74  A    between atoms: _206  and  _208
REMARK   75  A    between atoms: _208  and  _209
REMARK   76  A    between atoms: _208  and  _211
REMARK   77  A    between atoms: _211  and  _212
REMARK   78  A    between atoms: _212  and  _213
REMARK   79  A    between atoms: _213  and  _214
REMARK   80  A    between atoms: _223  and  _225
REMARK   81  A    between atoms: _225  and  _226
REMARK   82  A    between atoms: _229  and  _231
REMARK   83  A    between atoms: _231  and  _232
REMARK   84  A    between atoms: _235  and  _237
REMARK   85  A    between atoms: _237  and  _238
REMARK   86  A    between atoms: _237  and  _240
REMARK   87  A    between atoms: _243  and  _245
REMARK   88  A    between atoms: _245  and  _246
REMARK   89  A    between atoms: _245  and  _248
REMARK   90  A    between atoms: _248  and  _249
REMARK   91  A    between atoms: _254  and  _256
REMARK   92  A    between atoms: _256  and  _257
REMARK   93  A    between atoms: _256  and  _259
REMARK   94  A    between atoms: _262  and  _264
REMARK   95  A    between atoms: _264  and  _265
REMARK   96  A    between atoms: _264  and  _267
REMARK   97  A    between atoms: _267  and  _268
REMARK   98  A    between atoms: _268  and  _269
REMARK   99  A    between atoms: _271  and  _273
REMARK  100  A    between atoms: _273  and  _274
REMARK  101  A    between atoms: _273  and  _276
REMARK  102  A    between atoms: _276  and  _277
REMARK  103  A    between atoms: _280  and  _282
REMARK  104  A    between atoms: _282  and  _283
REMARK  105  A    between atoms: _282  and  _285
REMARK  106  A    between atoms: _285  and  _286
REMARK  107  A    between atoms: _291  and  _292
REMARK  108  A    between atoms: _294  and  _296
REMARK  109  A    between atoms: _296  and  _297
REMARK  110  A    between atoms: _296  and  _299
REMARK  111  A    between atoms: _299  and  _300
REMARK  112  A    between atoms: _303  and  _305
REMARK  113  A    between atoms: _305  and  _306
REMARK  114  A    between atoms: _305  and  _308
REMARK  115  A    between atoms: _308  and  _309
REMARK  116  A    between atoms: _319  and  _321
REMARK  117  A    between atoms: _321  and  _322
REMARK  118  A    between atoms: _321  and  _324
REMARK  119  A    between atoms: _324  and  _325
REMARK  120  A    between atoms: _330  and  _332
REMARK  121  A    between atoms: _332  and  _333
REMARK  122  A    between atoms: _335  and  _337
REMARK  123  A    between atoms: _337  and  _338
REMARK  124  A    between atoms: _337  and  _340
REMARK  125  A    between atoms: _340  and  _341
REMARK  126  A    between atoms: _348  and  _349
REMARK  127  A    between atoms: _354  and  _356
REMARK  128  A    between atoms: _356  and  _357
REMARK  129  A    between atoms: _356  and  _359
REMARK  130  A    between atoms: _359  and  _360
REMARK  131  A    between atoms: _363  and  _365
REMARK  132  A    between atoms: _365  and  _366
REMARK  133  A    between atoms: _365  and  _368
REMARK  134  A    between atoms: _368  and  _369
REMARK  135  A    between atoms: _374  and  _375
REMARK  136  A    between atoms: _377  and  _379
REMARK  137  A    between atoms: _379  and  _380
REMARK  138  A    between atoms: _382  and  _384
REMARK  139  A    between atoms: _384  and  _385
REMARK  140  A    between atoms: _384  and  _387
REMARK  141  A    between atoms: _387  and  _388
REMARK  142  A    between atoms: _393  and  _395
REMARK  143  A    between atoms: _395  and  _396
REMARK  144  A    between atoms: _398  and  _400
REMARK  145  A    between atoms: _400  and  _401
REMARK  146  A    between atoms: _400  and  _403
REMARK  147  A    between atoms: _403  and  _404
REMARK  148  A    between atoms: _409  and  _410
REMARK  149  A    between atoms: _412  and  _414
REMARK  150  A    between atoms: _414  and  _415
REMARK  151  A    between atoms: _418  and  _420
REMARK  152  A    between atoms: _420  and  _421
REMARK  153  A    between atoms: _420  and  _423
REMARK  154  A    between atoms: _423  and  _424
REMARK  155  A    between atoms: _424  and  _425
REMARK  156  A    between atoms: _425  and  _426
REMARK  157  A    between atoms: _426  and  _427
REMARK  158  A    between atoms: _431  and  _433
REMARK  159  A    between atoms: _433  and  _434
REMARK  160  A    between atoms: _433  and  _436
REMARK  161  A    between atoms: _436  and  _437
REMARK  162  A    between atoms: _437  and  _438
REMARK  163  A    between atoms: _441  and  _443
REMARK  164  A    between atoms: _443  and  _444
REMARK  165  A    between atoms: _443  and  _446
REMARK  166  A    between atoms: _446  and  _447
REMARK  167  A    between atoms: _449  and  _451
REMARK  168  A    between atoms: _451  and  _452
REMARK  169  A    between atoms: _454  and  _456
REMARK  170  A    between atoms: _456  and  _457
REMARK  171  A    between atoms: _456  and  _459
REMARK  172  A    between atoms: _459  and  _460
REMARK  173  A    between atoms: _463  and  _465
REMARK  174  A    between atoms: _465  and  _466
REMARK  175  A    between atoms: _465  and  _468
REMARK  176  A    between atoms: _468  and  _469
REMARK  177  A    between atoms: _479  and  _481
REMARK  178  A    between atoms: _481  and  _482
REMARK  179  A    between atoms: _485  and  _487
REMARK  180  A    between atoms: _487  and  _488
REMARK  181  A    between atoms: _487  and  _490
REMARK  182  A    between atoms: _490  and  _491
REMARK  183  A    between atoms: _496  and  _497
REMARK  184  A    between atoms: _499  and  _501
REMARK  185  A    between atoms: _501  and  _502
REMARK  186  A    between atoms: _501  and  _504
REMARK  187  A    between atoms: _504  and  _505
REMARK  188  A    between atoms: _510  and  _511
REMARK  189  A    between atoms: _513  and  _515
REMARK  190  A    between atoms: _515  and  _516
REMARK  191  A    between atoms: _515  and  _518
REMARK  192  A    between atoms: _518  and  _519
REMARK  193  A    between atoms: _519  and  _520
REMARK  194  A    between atoms: _523  and  _525
REMARK  195  A    between atoms: _525  and  _526
REMARK  196  A    between atoms: _525  and  _528
REMARK  197  A    between atoms: _528  and  _529
REMARK  198  A    between atoms: _529  and  _530
REMARK  199  A    between atoms: _532  and  _534
REMARK  200  A    between atoms: _534  and  _535
REMARK  201  A    between atoms: _534  and  _537
REMARK  202  A    between atoms: _540  and  _542
REMARK  203  A    between atoms: _542  and  _543
REMARK  204  A    between atoms: _542  and  _545
REMARK  205  A    between atoms: _545  and  _546
REMARK  206  A    between atoms: _556  and  _558
REMARK  207  A    between atoms: _558  and  _559
REMARK  208  A    between atoms: _562  and  _564
REMARK  209  A    between atoms: _564  and  _565
REMARK  210  A    between atoms: _564  and  _567
REMARK  211  A    between atoms: _567  and  _568
REMARK  212  A    between atoms: _571  and  _573
REMARK  213  A    between atoms: _573  and  _574
REMARK  214  A    between atoms: _573  and  _576
REMARK  215  A    between atoms: _576  and  _577
REMARK                            x       y       z     vdW  Elec       q    Type
REMARK                         _______ _______ _______ _____ _____    ______ ____
ROOT
ATOM      1  CA  ILE A   7       8.763   9.512 -16.322  0.00  0.00    +0.149 C 
ENDROOT
BRANCH   1   2
ATOM      2  C   ILE A   7       8.260  10.937 -16.465  0.00  0.00    +0.241 C 
ATOM      3  O   ILE A   7       7.943  11.600 -15.461  0.00  0.00    -0.273 OA
ATOM      4  N   TRP A   8       8.173  11.397 -17.713  0.00  0.00    -0.297 N 
ATOM      5  H   TRP A   8       8.538  10.811 -18.491  0.00  0.00    +0.150 HD
BRANCH   4   6
ATOM      6  CA  TRP A   8       7.583  12.694 -18.025  0.00  0.00    +0.153 C 
BRANCH   6   7
ATOM      7  C   TRP A   8       6.383  12.539 -18.943  0.00  0.00    +0.241 C 
ATOM      8  N   ALA A   9       5.263  13.152 -18.567  0.00  0.00    -0.297 N 
ATOM      9  H   ALA A   9       5.185  13.516 -17.596  0.00  0.00    +0.150 HD
ATOM     10  O   TRP A   8       6.477  11.887 -19.988  0.00  0.00    -0.273 OA
BRANCH   8  11
ATOM     11  CA  ALA A   9       4.141  13.326 -19.486  0.00  0.00    +0.149 C 
ATOM     12  CB  ALA A   9       3.032  14.123 -18.825  0.00  0.00    +0.031 C 
BRANCH  11  13
ATOM     13  C   ALA A   9       4.634  14.062 -20.728  0.00  0.00    +0.241 C 
ATOM     14  O   ALA A   9       5.628  14.817 -20.666  0.00  0.00    -0.273 OA
ATOM     15  N   TYR A  10       3.934  13.871 -21.844  0.00  0.00    -0.297 N 
ATOM     16  H   TYR A  10       3.096  13.255 -21.830  0.00  0.00    +0.150 HD
BRANCH  15  17
ATOM     17  CA  TYR A  10       4.335  14.521 -23.085  0.00  0.00    +0.153 C 
BRANCH  17  18
ATOM     18  C   TYR A  10       4.445  16.030 -22.916  0.00  0.00    +0.241 C 
ATOM     19  N   TYR A  11       3.471  16.639 -22.240  0.00  0.00    -0.297 N 
ATOM     20  H   TYR A  11       2.692  16.076 -21.843  0.00  0.00    +0.150 HD
ATOM     21  O   TYR A  10       5.414  16.627 -23.362  0.00  0.00    -0.273 OA
BRANCH  19  22
ATOM     22  CA  TYR A  11       3.484  18.095 -22.048  0.00  0.00    +0.153 C 
BRANCH  22  23
ATOM     23  C   TYR A  11       4.693  18.573 -21.214  0.00  0.00    +0.241 C 
ATOM     24  N   GLU A  12       5.096  17.760 -20.232  0.00  0.00    -0.298 N 
ATOM     25  H   GLU A  12       4.494  16.950 -19.980  0.00  0.00    +0.150 HD
ATOM     26  O   TYR A  11       5.258  19.644 -21.487  0.00  0.00    -0.273 OA
BRANCH  24  27
ATOM     27  CA  GLU A  12       6.350  17.958 -19.492  0.00  0.00    +0.137 C 
BRANCH  27  28
ATOM     28  C   GLU A  12       7.582  17.890 -20.403  0.00  0.00    +0.227 C 
ATOM     29  O   GLU A  12       8.525  18.698 -20.267  0.00  0.00    -0.286 OA
ENDBRANCH  27  28
BRANCH  27  30
ATOM     30  CB  GLU A  12       6.470  16.944 -18.331  0.00  0.00    +0.039 C 
BRANCH  30  31
ATOM     31  CG  GLU A  12       5.480  17.216 -17.183  0.00  0.00    +0.116 C 
BRANCH  31  32
ATOM     32  CD  GLU A  12       5.526  16.184 -16.070  0.00  0.00    +0.365 C 
ATOM     33  OE2 GLU A  12       5.262  16.560 -14.909  0.00  0.00    -0.246 OA
ATOM     34  OE1 GLU A  12       5.821  14.998 -16.335  0.00  0.00    -0.246 OA
ENDBRANCH  31  32
ENDBRANCH  30  31
ENDBRANCH  27  30
ENDBRANCH  24  27
ENDBRANCH  22  23
BRANCH  22  35
ATOM     35  CB  TYR A  11       2.129  18.616 -21.532  0.00  0.00    +0.055 C 
BRANCH  35  36
ATOM     36  CG  TYR A  11       1.670  18.158 -20.148  0.00  0.00    -0.020 A 
ATOM     37  CD2 TYR A  11       2.150  18.775 -18.990  0.00  0.00    -0.001 A 
ATOM     38  CE2 TYR A  11       1.717  18.378 -17.711  0.00  0.00    +0.036 A 
ATOM     39  CZ  TYR A  11       0.773  17.375 -17.588  0.00  0.00    +0.134 A 
ATOM     40  CE1 TYR A  11       0.259  16.759 -18.723  0.00  0.00    +0.036 A 
ATOM     41  CD1 TYR A  11       0.705  17.157 -20.000  0.00  0.00    -0.001 A 
BRANCH  39  42
ATOM     42  OH  TYR A  11       0.342  16.998 -16.328  0.00  0.00    -0.506 OA
ATOM     43  HH  TYR A  11      -0.328  16.274 -16.413  0.00  0.00    +0.292 HD
ENDBRANCH  39  42
ENDBRANCH  35  36
ENDBRANCH  22  35
ENDBRANCH  19  22
ENDBRANCH  17  18
BRANCH  17  44
ATOM     44  CB  TYR A  10       3.392  14.182 -24.240  0.00  0.00    +0.055 C 
BRANCH  44  45
ATOM     45  CG  TYR A  10       3.798  14.867 -25.525  0.00  0.00    -0.020 A 
ATOM     46  CD2 TYR A  10       5.068  14.668 -26.080  0.00  0.00    -0.001 A 
ATOM     47  CE2 TYR A  10       5.450  15.319 -27.269  0.00  0.00    +0.036 A 
ATOM     48  CZ  TYR A  10       4.544  16.176 -27.892  0.00  0.00    +0.134 A 
ATOM     49  CE1 TYR A  10       3.286  16.380 -27.359  0.00  0.00    +0.036 A 
ATOM     50  CD1 TYR A  10       2.926  15.738 -26.168  0.00  0.00    -0.001 A 
BRANCH  48  51
ATOM     51  OH  TYR A  10       4.864  16.820 -29.059  0.00  0.00    -0.506 OA
ATOM     52  HH  TYR A  10       5.789  16.583 -29.322  0.00  0.00    +0.292 HD
ENDBRANCH  48  51
ENDBRANCH  44  45
ENDBRANCH  17  44
ENDBRANCH  15  17
ENDBRANCH  11  13
ENDBRANCH   8  11
ENDBRANCH   6   7
BRANCH   6  53
ATOM     53  CB  TRP A   8       8.606  13.608 -18.715  0.00  0.00    +0.057 C 
BRANCH  53  54
ATOM     54  CG  TRP A   8       9.670  14.200 -17.826  0.00  0.00    -0.002 A 
ATOM     55  CD1 TRP A   8       9.624  14.361 -16.471  0.00  0.00    +0.068 A 
ATOM     56  NE1 TRP A   8      10.779  14.974 -16.026  0.00  0.00    -0.352 N 
ATOM     57  HE1 TRP A   8      10.999  15.203 -15.036  0.00  0.00    +0.166 HD
ATOM     58  CE2 TRP A   8      11.587  15.231 -17.102  0.00  0.00    +0.056 A 
ATOM     59  CZ2 TRP A   8      12.851  15.830 -17.157  0.00  0.00    +0.017 A 
ATOM     60  CH2 TRP A   8      13.442  15.954 -18.389  0.00  0.00    +0.001 A 
ATOM     61  CZ3 TRP A   8      12.802  15.504 -19.562  0.00  0.00    +0.000 A 
ATOM     62  CE3 TRP A   8      11.543  14.903 -19.508  0.00  0.00    +0.001 A 
ATOM     63  CD2 TRP A   8      10.920  14.760 -18.256  0.00  0.00    +0.013 A 
ENDBRANCH  53  54
ENDBRANCH   6  53
ENDBRANCH   4   6
ENDBRANCH   1   2
BRANCH   1  65
ATOM     64  C   GLY A   6      10.798   8.559 -15.365  0.00  0.00    +0.243 C 
ATOM     65  N   ILE A   7       9.773   9.404 -15.260  0.00  0.00    -0.297 N 
ATOM     66  H   ILE A   7       9.686   9.998 -14.411  0.00  0.00    +0.150 HD
ATOM     67  O   GLY A   6      11.006   7.883 -16.381  0.00  0.00    -0.273 OA
BRANCH  64  68
ATOM     68  CA  GLY A   6      11.724   8.441 -14.167  0.00  0.00    +0.176 C 
BRANCH  68  71
ATOM     69  C   SER A   5      10.301   8.535 -12.172  0.00  0.00    +0.243 C 
ATOM     70  O   SER A   5       9.604   7.583 -12.549  0.00  0.00    -0.273 OA
ATOM     71  N   GLY A   6      11.273   9.055 -12.918  0.00  0.00    -0.295 N 
ATOM     72  H   GLY A   6      11.730   9.933 -12.600  0.00  0.00    +0.150 HD
BRANCH  69  73
ATOM     73  CA  SER A   5      10.030   9.246 -10.826  0.00  0.00    +0.178 C 
BRANCH  73  75
ATOM     74  C   GLU A   4       8.054  10.376 -11.687  0.00  0.00    +0.241 C 
ATOM     75  N   SER A   5       8.639   9.663 -10.731  0.00  0.00    -0.295 N 
ATOM     76  H   SER A   5       8.087   9.395  -9.891  0.00  0.00    +0.150 HD
ATOM     77  O   GLU A   4       8.660  10.827 -12.651  0.00  0.00    -0.273 OA
BRANCH  74  78
ATOM     78  CA  GLU A   4       6.558  10.625 -11.512  0.00  0.00    +0.149 C 
BRANCH  78  81
ATOM     79  C   LYS A   3       5.993  12.588 -10.184  0.00  0.00    +0.241 C 
ATOM     80  O   LYS A   3       6.075  11.965  -9.122  0.00  0.00    -0.273 OA
ATOM     81  N   GLU A   4       6.273  12.045 -11.367  0.00  0.00    -0.297 N 
ATOM     82  H   GLU A   4       6.289  12.652 -12.211  0.00  0.00    +0.150 HD
BRANCH  79  83
ATOM     83  CA  LYS A   3       5.585  14.065 -10.201  0.00  0.00    +0.149 C 
BRANCH  83  86
ATOM     84  C   ALA A   2       3.643  13.828 -11.722  0.00  0.00    +0.241 C 
ATOM     85  O   ALA A   2       3.210  12.814 -11.163  0.00  0.00    -0.273 OA
ATOM     86  N   LYS A   3       4.783  14.434 -11.381  0.00  0.00    -0.297 N 
ATOM     87  H   LYS A   3       5.124  15.211 -11.982  0.00  0.00    +0.150 HD
BRANCH  84  88
ATOM     88  CA  ALA A   2       2.878  14.452 -12.880  0.00  0.00    +0.149 C 
ATOM     89  CB  ALA A   2       3.120  13.665 -14.156  0.00  0.00    +0.031 C 
BRANCH  88  92
ATOM     90  C   TYR A   1       2.683  16.842 -12.379  0.00  0.00    +0.239 C 
ATOM     91  O   TYR A   1       1.844  16.660 -11.482  0.00  0.00    -0.274 OA
ATOM     92  N   ALA A   2       3.236  15.859 -13.079  0.00  0.00    -0.297 N 
ATOM     93  H   ALA A   2       3.951  16.097 -13.796  0.00  0.00    +0.150 HD
BRANCH  90  94
ATOM     94  CA  TYR A   1       3.140  18.248 -12.742  0.00  0.00    +0.149 C 
BRANCH  94  95
ATOM     95  N   TYR A   1       4.603  18.390 -12.768  0.00  0.00    -0.238 NA
ATOM     96  H   TYR A   1       5.145  17.905 -13.511  0.00  0.00    +0.142 HD
ENDBRANCH  94  95
BRANCH  94  97
ATOM     97  CB  TYR A   1       2.532  18.656 -14.093  0.00  0.00    +0.053 C 
BRANCH  97  98
ATOM     98  CG  TYR A   1       2.677  20.124 -14.382  0.00  0.00    -0.020 A 
ATOM     99  CD2 TYR A   1       1.750  21.050 -13.888  0.00  0.00    -0.001 A 
ATOM    100  CE2 TYR A   1       1.893  22.421 -14.151  0.00  0.00    +0.036 A 
ATOM    101  CZ  TYR A   1       2.982  22.857 -14.896  0.00  0.00    +0.134 A 
ATOM    102  CE1 TYR A   1       3.909  21.963 -15.385  0.00  0.00    +0.036 A 
ATOM    103  CD1 TYR A   1       3.756  20.597 -15.124  0.00  0.00    -0.001 A 
BRANCH 101 104
ATOM    104  OH  TYR A   1       3.148  24.189 -15.167  0.00  0.00    -0.506 OA
ATOM    105  HH  TYR A   1       3.970  24.315 -15.704  0.00  0.00    +0.292 HD
ENDBRANCH 101 104
ENDBRANCH  97  98
ENDBRANCH  94  97
ENDBRANCH  90  94
ENDBRANCH  88  92
ENDBRANCH  84  88
ENDBRANCH  83  86
BRANCH  83 106
ATOM    106  CB  LYS A   3       4.858  14.457  -8.902  0.00  0.00    +0.029 C 
BRANCH 106 107
ATOM    107  CG  LYS A   3       4.171  15.835  -8.942  0.00  0.00    +0.000 C 
BRANCH 107 108
ATOM    108  CD  LYS A   3       4.863  16.883  -8.090  0.00  0.00    -0.024 C 
BRANCH 108 109
ATOM    109  CE  LYS A   3       4.170  18.243  -8.275  0.00  0.00    -0.086 C 
BRANCH 109 110
ATOM    110  NZ  LYS A   3       4.169  19.083  -7.043  0.00  0.00    +0.380 N 
ATOM    111  HZ1 LYS A   3       3.670  18.580  -6.282  0.00  0.00    -0.089 HD
ATOM    112  HZ2 LYS A   3       5.150  19.270  -6.751  0.00  0.00    -0.089 HD
ATOM    113  HZ3 LYS A   3       3.687  19.983  -7.239  0.00  0.00    -0.089 HD
ENDBRANCH 109 110
ENDBRANCH 108 109
ENDBRANCH 107 108
ENDBRANCH 106 107
ENDBRANCH  83 106
ENDBRANCH  79  83
ENDBRANCH  78  81
BRANCH  78 114
ATOM    114  CB  GLU A   4       5.760  10.023 -12.680  0.00  0.00    +0.041 C 
BRANCH 114 115
ATOM    115  CG  GLU A   4       5.907   8.502 -12.830  0.00  0.00    +0.116 C 
BRANCH 115 116
ATOM    116  CD  GLU A   4       5.159   7.712 -11.755  0.00  0.00    +0.365 C 
ATOM    117  OE2 GLU A   4       4.247   8.261 -11.109  0.00  0.00    -0.246 OA
ATOM    118  OE1 GLU A   4       5.481   6.527 -11.565  0.00  0.00    -0.246 OA
ENDBRANCH 115 116
ENDBRANCH 114 115
ENDBRANCH  78 114
ENDBRANCH  74  78
ENDBRANCH  73  75
BRANCH  73 119
ATOM    119  CB  SER A   5      10.397   8.384  -9.604  0.00  0.00    +0.166 C 
BRANCH 119 120
ATOM    120  OG  SER A   5      11.713   7.897  -9.691  0.00  0.00    -0.380 OA
ATOM    121  H   SER A   5      11.914   7.349  -8.892  0.00  0.00    +0.211 HD
ENDBRANCH 119 120
ENDBRANCH  73 119
ENDBRANCH  69  73
ENDBRANCH  68  71
ENDBRANCH  64  68
ENDBRANCH   1  65
BRANCH   1 122
ATOM    122  CB  ILE A   7       7.521   8.584 -16.079  0.00  0.00    +0.027 C 
ATOM    123  CG2 ILE A   7       6.479   8.808 -17.162  0.00  0.00    +0.002 C 
BRANCH 122 124
ATOM    124  CG1 ILE A   7       7.907   7.099 -16.075  0.00  0.00    +0.002 C 
ATOM    125  CD1 ILE A   7       6.760   6.145 -15.708  0.00  0.00    +0.000 C 
ENDBRANCH 122 124
ENDBRANCH   1 122
TORSDOF 50
REMARK  Name = ../refined-set-2016/3rm4/3rm4_pocket.pdb
REMARK  215 active torsions:
REMARK  status: ('A' for Active; 'I' for Inactive)
REMARK    1  A    between atoms: _1  and  _3
REMARK    2  A    between atoms: _3  and  _4
REMARK    3  A    between atoms: _3  and  _6
REMARK    4  A    between atoms: _6  and  _7
REMARK    5  A    between atoms: _12  and  _13
REMARK    6  A    between atoms: _15  and  _17
REMARK    7  A    between atoms: _17  and  _18
REMARK    8  A    between atoms: _17  and  _20
REMARK    9  A    between atoms: _20  and  _21
REMARK   10  A    between atoms: _24  and  _26
REMARK   11  A    between atoms: _26  and  _27
REMARK   12  A    between atoms: _26  and  _29
REMARK   13  A    between atoms: _29  and  _30
REMARK   14  A    between atoms: _40  and  _42
REMARK   15  A    between atoms: _42  and  _43
REMARK   16  A    between atoms: _42  and  _45
REMARK   17  A    between atoms: _45  and  _46
REMARK   18  A    between atoms: _46  and  _47
REMARK   19  A    between atoms: _47  and  _48
REMARK   20  A    between atoms: _57  and  _59
REMARK   21  A    between atoms: _59  and  _60
REMARK   22  A    between atoms: _59  and  _62
REMARK   23  A    between atoms: _62  and  _63
REMARK   24  A    between atoms: _66  and  _68
REMARK   25  A    between atoms: _68  and  _69
REMARK   26  A    between atoms: _72  and  _74
REMARK   27  A    between atoms: _74  and  _75
REMARK   28  A    between atoms: _74  and  _77
REMARK   29  A    between atoms: _77  and  _78
REMARK   30  A    between atoms: _84  and  _86
REMARK   31  A    between atoms: _86  and  _87
REMARK   32  A    between atoms: _90  and  _92
REMARK   33  A    between atoms: _92  and  _93
REMARK   34  A    between atoms: _92  and  _95
REMARK   35  A    between atoms: _95  and  _96
REMARK   36  A    between atoms: _99  and  _101
REMARK   37  A    between atoms: _101  and  _102
REMARK   38  A    between atoms: _104  and  _106
REMARK   39  A    between atoms: _106  and  _107
REMARK   40  A    between atoms: _109  and  _111
REMARK   41  A    between atoms: _111  and  _112
REMARK   42  A    between atoms: _111  and  _114
REMARK   43  A    between atoms: _114  and  _115
REMARK   44  A    between atoms: _125  and  _127
REMARK   45  A    between atoms: _127  and  _128
REMARK   46  A    between atoms: _127  and  _130
REMARK   47  A    between atoms: _130  and  _131
REMARK   48  A    between atoms: _136  and  _138
REMARK   49  A    between atoms: _138  and  _139
REMARK   50  A    between atoms: _138  and  _141
REMARK   51  A    between atoms: _141  and  _142
REMARK   52  A    between atoms: _145  and  _147
REMARK   53  A    between atoms: _147  and  _148
REMARK   54  A    between atoms: _147  and  _150
REMARK   55  A    between atoms: _150  and  _151
REMARK   56  A    between atoms: _157  and  _159
REMARK   57  A    between atoms: _159  and  _160
REMARK   58  A    between atoms: _159  and  _162
REMARK   59  A    between atoms: _162  and  _163
REMARK   60  A    between atoms: _166  and  _168
REMARK   61  A    between atoms: _168  and  _169
REMARK   62  A    between atoms: _168  and  _171
REMARK   63  A    between atoms: _171  and  _172
REMARK   64  A    between atoms: _182  and  _184
REMARK   65  A    between atoms: _184  and  _185
REMARK   66  A    between atoms: _184  and  _187
REMARK   67  A    between atoms: _187  and  _188
REMARK   68  A    between atoms: _188  and  _189
REMARK   69  A    between atoms: _192  and  _194
REMARK   70  A    between atoms: _194  and  _195
REMARK   71  A    between atoms: _194  and  _197
REMARK   72  A    between atoms: _197  and  _198
REMARK   73  A    between atoms: _203  and  _204
REMARK   74  A    between atoms: _206  and  _208
REMARK   75  A    between atoms: _208  and  _209
REMARK   76  A    between atoms: _208  and  _211
REMARK   77  A    between atoms: _211  and  _212
REMARK   78  A    between atoms: _212  and  _213
REMARK   79  A    between atoms: _213  and  _214
REMARK   80  A    between atoms: _223  and  _225
REMARK   81  A    between atoms: _225  and  _226
REMARK   82  A    between atoms: _229  and  _231
REMARK   83  A    between atoms: _231  and  _232
REMARK   84  A    between atoms: _235  and  _237
REMARK   85  A    between atoms: _237  and  _238
REMARK   86  A    between atoms: _237  and  _240
REMARK   87  A    between atoms: _243  and  _245
REMARK   88  A    between atoms: _245  and  _246
REMARK   89  A    between atoms: _245  and  _248
REMARK   90  A    between atoms: _248  and  _249
REMARK   91  A    between atoms: _254  and  _256
REMARK   92  A    between atoms: _256  and  _257
REMARK   93  A    between atoms: _256  and  _259
REMARK   94  A    between atoms: _262  and  _264
REMARK   95  A    between atoms: _264  and  _265
REMARK   96  A    between atoms: _264  and  _267
REMARK   97  A    between atoms: _267  and  _268
REMARK   98  A    between atoms: _268  and  _269
REMARK   99  A    between atoms: _271  and  _273
REMARK  100  A    between atoms: _273  and  _274
REMARK  101  A    between atoms: _273  and  _276
REMARK  102  A    between atoms: _276  and  _277
REMARK  103  A    between atoms: _280  and  _282
REMARK  104  A    between atoms: _282  and  _283
REMARK  105  A    between atoms: _282  and  _285
REMARK  106  A    between atoms: _285  and  _286
REMARK  107  A    between atoms: _291  and  _292
REMARK  108  A    between atoms: _294  and  _296
REMARK  109  A    between atoms: _296  and  _297
REMARK  110  A    between atoms: _296  and  _299
REMARK  111  A    between atoms: _299  and  _300
REMARK  112  A    between atoms: _303  and  _305
REMARK  113  A    between atoms: _305  and  _306
REMARK  114  A    between atoms: _305  and  _308
REMARK  115  A    between atoms: _308  and  _309
REMARK  116  A    between atoms: _319  and  _321
REMARK  117  A    between atoms: _321  and  _322
REMARK  118  A    between atoms: _321  and  _324
REMARK  119  A    between atoms: _324  and  _325
REMARK  120  A    between atoms: _330  and  _332
REMARK  121  A    between atoms: _332  and  _333
REMARK  122  A    between atoms: _335  and  _337
REMARK  123  A    between atoms: _337  and  _338
REMARK  124  A    between atoms: _337  and  _340
REMARK  125  A    between atoms: _340  and  _341
REMARK  126  A    between atoms: _348  and  _349
REMARK  127  A    between atoms: _354  and  _356
REMARK  128  A    between atoms: _356  and  _357
REMARK  129  A    between atoms: _356  and  _359
REMARK  130  A    between atoms: _359  and  _360
REMARK  131  A    between atoms: _363  and  _365
REMARK  132  A    between atoms: _365  and  _366
REMARK  133  A    between atoms: _365  and  _368
REMARK  134  A    between atoms: _368  and  _369
REMARK  135  A    between atoms: _374  and  _375
REMARK  136  A    between atoms: _377  and  _379
REMARK  137  A    between atoms: _379  and  _380
REMARK  138  A    between atoms: _382  and  _384
REMARK  139  A    between atoms: _384  and  _385
REMARK  140  A    between atoms: _384  and  _387
REMARK  141  A    between atoms: _387  and  _388
REMARK  142  A    between atoms: _393  and  _395
REMARK  143  A    between atoms: _395  and  _396
REMARK  144  A    between atoms: _398  and  _400
REMARK  145  A    between atoms: _400  and  _401
REMARK  146  A    between atoms: _400  and  _403
REMARK  147  A    between atoms: _403  and  _404
REMARK  148  A    between atoms: _409  and  _410
REMARK  149  A    between atoms: _412  and  _414
REMARK  150  A    between atoms: _414  and  _415
REMARK  151  A    between atoms: _418  and  _420
REMARK  152  A    between atoms: _420  and  _421
REMARK  153  A    between atoms: _420  and  _423
REMARK  154  A    between atoms: _423  and  _424
REMARK  155  A    between atoms: _424  and  _425
REMARK  156  A    between atoms: _425  and  _426
REMARK  157  A    between atoms: _426  and  _427
REMARK  158  A    between atoms: _431  and  _433
REMARK  159  A    between atoms: _433  and  _434
REMARK  160  A    between atoms: _433  and  _436
REMARK  161  A    between atoms: _436  and  _437
REMARK  162  A    between atoms: _437  and  _438
REMARK  163  A    between atoms: _441  and  _443
REMARK  164  A    between atoms: _443  and  _444
REMARK  165  A    between atoms: _443  and  _446
REMARK  166  A    between atoms: _446  and  _447
REMARK  167  A    between atoms: _449  and  _451
REMARK  168  A    between atoms: _451  and  _452
REMARK  169  A    between atoms: _454  and  _456
REMARK  170  A    between atoms: _456  and  _457
REMARK  171  A    between atoms: _456  and  _459
REMARK  172  A    between atoms: _459  and  _460
REMARK  173  A    between atoms: _463  and  _465
REMARK  174  A    between atoms: _465  and  _466
REMARK  175  A    between atoms: _465  and  _468
REMARK  176  A    between atoms: _468  and  _469
REMARK  177  A    between atoms: _479  and  _481
REMARK  178  A    between atoms: _481  and  _482
REMARK  179  A    between atoms: _485  and  _487
REMARK  180  A    between atoms: _487  and  _488
REMARK  181  A    between atoms: _487  and  _490
REMARK  182  A    between atoms: _490  and  _491
REMARK  183  A    between atoms: _496  and  _497
REMARK  184  A    between atoms: _499  and  _501
REMARK  185  A    between atoms: _501  and  _502
REMARK  186  A    between atoms: _501  and  _504
REMARK  187  A    between atoms: _504  and  _505
REMARK  188  A    between atoms: _510  and  _511
REMARK  189  A    between atoms: _513  and  _515
REMARK  190  A    between atoms: _515  and  _516
REMARK  191  A    between atoms: _515  and  _518
REMARK  192  A    between atoms: _518  and  _519
REMARK  193  A    between atoms: _519  and  _520
REMARK  194  A    between atoms: _523  and  _525
REMARK  195  A    between atoms: _525  and  _526
REMARK  196  A    between atoms: _525  and  _528
REMARK  197  A    between atoms: _528  and  _529
REMARK  198  A    between atoms: _529  and  _530
REMARK  199  A    between atoms: _532  and  _534
REMARK  200  A    between atoms: _534  and  _535
REMARK  201  A    between atoms: _534  and  _537
REMARK  202  A    between atoms: _540  and  _542
REMARK  203  A    between atoms: _542  and  _543
REMARK  204  A    between atoms: _542  and  _545
REMARK  205  A    between atoms: _545  and  _546
REMARK  206  A    between atoms: _556  and  _558
REMARK  207  A    between atoms: _558  and  _559
REMARK  208  A    between atoms: _562  and  _564
REMARK  209  A    between atoms: _564  and  _565
REMARK  210  A    between atoms: _564  and  _567
REMARK  211  A    between atoms: _567  and  _568
REMARK  212  A    between atoms: _571  and  _573
REMARK  213  A    between atoms: _573  and  _574
REMARK  214  A    between atoms: _573  and  _576
REMARK  215  A    between atoms: _576  and  _577
REMARK                            x       y       z     vdW  Elec       q    Type
REMARK                         _______ _______ _______ _____ _____    ______ ____
ROOT
ATOM      1  CA  TRP A   3      -2.191   5.830 -22.192  0.00  0.00    +0.153 C 
ENDROOT
BRANCH   1   4
ATOM      2  C   VAL A   2      -3.635   5.695 -24.141  0.00  0.00    +0.241 C 
ATOM      3  O   VAL A   2      -4.675   5.797 -23.480  0.00  0.00    -0.273 OA
ATOM      4  N   TRP A   3      -2.435   5.537 -23.592  0.00  0.00    -0.297 N 
ATOM      5  H   TRP A   3      -1.650   5.194 -24.182  0.00  0.00    +0.150 HD
BRANCH   2   6
ATOM      6  CA  VAL A   2      -3.668   5.702 -25.666  0.00  0.00    +0.148 C 
BRANCH   6   8
ATOM      7  C   MET A   1      -4.180   3.737 -27.027  0.00  0.00    +0.238 C 
ATOM      8  N   VAL A   2      -4.569   4.667 -26.165  0.00  0.00    -0.297 N 
ATOM      9  H   VAL A   2      -5.554   4.659 -25.832  0.00  0.00    +0.150 HD
ATOM     10  O   MET A   1      -3.007   3.565 -27.356  0.00  0.00    -0.274 OA
BRANCH   7  11
ATOM     11  CA  MET A   1      -5.284   2.867 -27.606  0.00  0.00    +0.146 C 
BRANCH  11  12
ATOM     12  N   MET A   1      -4.868   2.369 -28.921  0.00  0.00    -0.238 NA
ATOM     13  H   MET A   1      -3.993   1.813 -29.005  0.00  0.00    +0.142 HD
ENDBRANCH  11  12
BRANCH  11  14
ATOM     14  CB  MET A   1      -5.678   1.730 -26.640  0.00  0.00    +0.038 C 
BRANCH  14  15
ATOM     15  CG  MET A   1      -4.571   0.748 -26.291  0.00  0.00    +0.060 C 
BRANCH  15  16
ATOM     16  SD  MET A   1      -3.544   1.280 -24.900  0.00  0.00    -0.139 S 
ATOM     17  CE  MET A   1      -2.772  -0.295 -24.540  0.00  0.00    +0.069 C 
ENDBRANCH  15  16
ENDBRANCH  14  15
ENDBRANCH  11  14
ENDBRANCH   7  11
ENDBRANCH   6   8
BRANCH   6  18
ATOM     18  CB  VAL A   2      -4.104   7.106 -26.141  0.00  0.00    +0.027 C 
ATOM     19  CG2 VAL A   2      -3.148   8.183 -25.602  0.00  0.00    +0.002 C 
ATOM     20  CG1 VAL A   2      -4.224   7.161 -27.681  0.00  0.00    +0.002 C 
ENDBRANCH   6  18
ENDBRANCH   2   6
ENDBRANCH   1   4
BRANCH   1  21
ATOM     21  C   TRP A   3      -1.345   7.103 -22.107  0.00  0.00    +0.241 C 
ATOM     22  N   ALA A   4      -1.900   8.230 -21.662  0.00  0.00    -0.298 N 
ATOM     23  H   ALA A   4      -1.278   9.059 -21.574  0.00  0.00    +0.150 HD
ATOM     24  O   TRP A   3      -0.174   7.068 -22.456  0.00  0.00    -0.273 OA
BRANCH  22  25
ATOM     25  CA  ALA A   4      -3.296   8.410 -21.288  0.00  0.00    +0.137 C 
ATOM     26  CB  ALA A   4      -3.442   8.382 -19.762  0.00  0.00    +0.030 C 
BRANCH  25  27
ATOM     27  C   ALA A   4      -3.686   9.777 -21.822  0.00  0.00    +0.227 C 
ATOM     28  O   ALA A   4      -2.809  10.606 -22.092  0.00  0.00    -0.286 OA
ENDBRANCH  25  27
ENDBRANCH  22  25
ENDBRANCH   1  21
BRANCH   1  29
ATOM     29  CB  TRP A   3      -1.453   4.684 -21.490  0.00  0.00    +0.057 C 
BRANCH  29  30
ATOM     30  CG  TRP A   3      -1.397   4.931 -20.004  0.00  0.00    -0.002 A 
ATOM     31  CD2 TRP A   3      -2.323   4.446 -19.029  0.00  0.00    +0.013 A 
ATOM     32  CE2 TRP A   3      -1.918   4.961 -17.770  0.00  0.00    +0.056 A 
ATOM     33  CZ2 TRP A   3      -2.596   4.654 -16.577  0.00  0.00    +0.017 A 
ATOM     34  CH2 TRP A   3      -3.695   3.829 -16.666  0.00  0.00    +0.001 A 
ATOM     35  CZ3 TRP A   3      -4.127   3.303 -17.913  0.00  0.00    +0.000 A 
ATOM     36  NE1 TRP A   3      -0.807   5.742 -17.979  0.00  0.00    -0.352 N 
ATOM     37  HE1 TRP A   3      -0.284   6.261 -17.245  0.00  0.00    +0.166 HD
ATOM     38  CE3 TRP A   3      -3.450   3.605 -19.092  0.00  0.00    +0.001 A 
ATOM     39  CD1 TRP A   3      -0.499   5.724 -19.324  0.00  0.00    +0.068 A 
ENDBRANCH  29  30
ENDBRANCH   1  29
TORSDOF 14
REMARK  Name = ../refined-set-2016/3rm4/3rm4_pocket.pdb
REMARK  215 active torsions:
REMARK  status: ('A' for Active; 'I' for Inactive)
REMARK    1  A    between atoms: _1  and  _3
REMARK    2  A    between atoms: _3  and  _4
REMARK    3  A    between atoms: _3  and  _6
REMARK    4  A    between atoms: _6  and  _7
REMARK    5  A    between atoms: _12  and  _13
REMARK    6  A    between atoms: _15  and  _17
REMARK    7  A    between atoms: _17  and  _18
REMARK    8  A    between atoms: _17  and  _20
REMARK    9  A    between atoms: _20  and  _21
REMARK   10  A    between atoms: _24  and  _26
REMARK   11  A    between atoms: _26  and  _27
REMARK   12  A    between atoms: _26  and  _29
REMARK   13  A    between atoms: _29  and  _30
REMARK   14  A    between atoms: _40  and  _42
REMARK   15  A    between atoms: _42  and  _43
REMARK   16  A    between atoms: _42  and  _45
REMARK   17  A    between atoms: _45  and  _46
REMARK   18  A    between atoms: _46  and  _47
REMARK   19  A    between atoms: _47  and  _48
REMARK   20  A    between atoms: _57  and  _59
REMARK   21  A    between atoms: _59  and  _60
REMARK   22  A    between atoms: _59  and  _62
REMARK   23  A    between atoms: _62  and  _63
REMARK   24  A    between atoms: _66  and  _68
REMARK   25  A    between atoms: _68  and  _69
REMARK   26  A    between atoms: _72  and  _74
REMARK   27  A    between atoms: _74  and  _75
REMARK   28  A    between atoms: _74  and  _77
REMARK   29  A    between atoms: _77  and  _78
REMARK   30  A    between atoms: _84  and  _86
REMARK   31  A    between atoms: _86  and  _87
REMARK   32  A    between atoms: _90  and  _92
REMARK   33  A    between atoms: _92  and  _93
REMARK   34  A    between atoms: _92  and  _95
REMARK   35  A    between atoms: _95  and  _96
REMARK   36  A    between atoms: _99  and  _101
REMARK   37  A    between atoms: _101  and  _102
REMARK   38  A    between atoms: _104  and  _106
REMARK   39  A    between atoms: _106  and  _107
REMARK   40  A    between atoms: _109  and  _111
REMARK   41  A    between atoms: _111  and  _112
REMARK   42  A    between atoms: _111  and  _114
REMARK   43  A    between atoms: _114  and  _115
REMARK   44  A    between atoms: _125  and  _127
REMARK   45  A    between atoms: _127  and  _128
REMARK   46  A    between atoms: _127  and  _130
REMARK   47  A    between atoms: _130  and  _131
REMARK   48  A    between atoms: _136  and  _138
REMARK   49  A    between atoms: _138  and  _139
REMARK   50  A    between atoms: _138  and  _141
REMARK   51  A    between atoms: _141  and  _142
REMARK   52  A    between atoms: _145  and  _147
REMARK   53  A    between atoms: _147  and  _148
REMARK   54  A    between atoms: _147  and  _150
REMARK   55  A    between atoms: _150  and  _151
REMARK   56  A    between atoms: _157  and  _159
REMARK   57  A    between atoms: _159  and  _160
REMARK   58  A    between atoms: _159  and  _162
REMARK   59  A    between atoms: _162  and  _163
REMARK   60  A    between atoms: _166  and  _168
REMARK   61  A    between atoms: _168  and  _169
REMARK   62  A    between atoms: _168  and  _171
REMARK   63  A    between atoms: _171  and  _172
REMARK   64  A    between atoms: _182  and  _184
REMARK   65  A    between atoms: _184  and  _185
REMARK   66  A    between atoms: _184  and  _187
REMARK   67  A    between atoms: _187  and  _188
REMARK   68  A    between atoms: _188  and  _189
REMARK   69  A    between atoms: _192  and  _194
REMARK   70  A    between atoms: _194  and  _195
REMARK   71  A    between atoms: _194  and  _197
REMARK   72  A    between atoms: _197  and  _198
REMARK   73  A    between atoms: _203  and  _204
REMARK   74  A    between atoms: _206  and  _208
REMARK   75  A    between atoms: _208  and  _209
REMARK   76  A    between atoms: _208  and  _211
REMARK   77  A    between atoms: _211  and  _212
REMARK   78  A    between atoms: _212  and  _213
REMARK   79  A    between atoms: _213  and  _214
REMARK   80  A    between atoms: _223  and  _225
REMARK   81  A    between atoms: _225  and  _226
REMARK   82  A    between atoms: _229  and  _231
REMARK   83  A    between atoms: _231  and  _232
REMARK   84  A    between atoms: _235  and  _237
REMARK   85  A    between atoms: _237  and  _238
REMARK   86  A    between atoms: _237  and  _240
REMARK   87  A    between atoms: _243  and  _245
REMARK   88  A    between atoms: _245  and  _246
REMARK   89  A    between atoms: _245  and  _248
REMARK   90  A    between atoms: _248  and  _249
REMARK   91  A    between atoms: _254  and  _256
REMARK   92  A    between atoms: _256  and  _257
REMARK   93  A    between atoms: _256  and  _259
REMARK   94  A    between atoms: _262  and  _264
REMARK   95  A    between atoms: _264  and  _265
REMARK   96  A    between atoms: _264  and  _267
REMARK   97  A    between atoms: _267  and  _268
REMARK   98  A    between atoms: _268  and  _269
REMARK   99  A    between atoms: _271  and  _273
REMARK  100  A    between atoms: _273  and  _274
REMARK  101  A    between atoms: _273  and  _276
REMARK  102  A    between atoms: _276  and  _277
REMARK  103  A    between atoms: _280  and  _282
REMARK  104  A    between atoms: _282  and  _283
REMARK  105  A    between atoms: _282  and  _285
REMARK  106  A    between atoms: _285  and  _286
REMARK  107  A    between atoms: _291  and  _292
REMARK  108  A    between atoms: _294  and  _296
REMARK  109  A    between atoms: _296  and  _297
REMARK  110  A    between atoms: _296  and  _299
REMARK  111  A    between atoms: _299  and  _300
REMARK  112  A    between atoms: _303  and  _305
REMARK  113  A    between atoms: _305  and  _306
REMARK  114  A    between atoms: _305  and  _308
REMARK  115  A    between atoms: _308  and  _309
REMARK  116  A    between atoms: _319  and  _321
REMARK  117  A    between atoms: _321  and  _322
REMARK  118  A    between atoms: _321  and  _324
REMARK  119  A    between atoms: _324  and  _325
REMARK  120  A    between atoms: _330  and  _332
REMARK  121  A    between atoms: _332  and  _333
REMARK  122  A    between atoms: _335  and  _337
REMARK  123  A    between atoms: _337  and  _338
REMARK  124  A    between atoms: _337  and  _340
REMARK  125  A    between atoms: _340  and  _341
REMARK  126  A    between atoms: _348  and  _349
REMARK  127  A    between atoms: _354  and  _356
REMARK  128  A    between atoms: _356  and  _357
REMARK  129  A    between atoms: _356  and  _359
REMARK  130  A    between atoms: _359  and  _360
REMARK  131  A    between atoms: _363  and  _365
REMARK  132  A    between atoms: _365  and  _366
REMARK  133  A    between atoms: _365  and  _368
REMARK  134  A    between atoms: _368  and  _369
REMARK  135  A    between atoms: _374  and  _375
REMARK  136  A    between atoms: _377  and  _379
REMARK  137  A    between atoms: _379  and  _380
REMARK  138  A    between atoms: _382  and  _384
REMARK  139  A    between atoms: _384  and  _385
REMARK  140  A    between atoms: _384  and  _387
REMARK  141  A    between atoms: _387  and  _388
REMARK  142  A    between atoms: _393  and  _395
REMARK  143  A    between atoms: _395  and  _396
REMARK  144  A    between atoms: _398  and  _400
REMARK  145  A    between atoms: _400  and  _401
REMARK  146  A    between atoms: _400  and  _403
REMARK  147  A    between atoms: _403  and  _404
REMARK  148  A    between atoms: _409  and  _410
REMARK  149  A    between atoms: _412  and  _414
REMARK  150  A    between atoms: _414  and  _415
REMARK  151  A    between atoms: _418  and  _420
REMARK  152  A    between atoms: _420  and  _421
REMARK  153  A    between atoms: _420  and  _423
REMARK  154  A    between atoms: _423  and  _424
REMARK  155  A    between atoms: _424  and  _425
REMARK  156  A    between atoms: _425  and  _426
REMARK  157  A    between atoms: _426  and  _427
REMARK  158  A    between atoms: _431  and  _433
REMARK  159  A    between atoms: _433  and  _434
REMARK  160  A    between atoms: _433  and  _436
REMARK  161  A    between atoms: _436  and  _437
REMARK  162  A    between atoms: _437  and  _438
REMARK  163  A    between atoms: _441  and  _443
REMARK  164  A    between atoms: _443  and  _444
REMARK  165  A    between atoms: _443  and  _446
REMARK  166  A    between atoms: _446  and  _447
REMARK  167  A    between atoms: _449  and  _451
REMARK  168  A    between atoms: _451  and  _452
REMARK  169  A    between atoms: _454  and  _456
REMARK  170  A    between atoms: _456  and  _457
REMARK  171  A    between atoms: _456  and  _459
REMARK  172  A    between atoms: _459  and  _460
REMARK  173  A    between atoms: _463  and  _465
REMARK  174  A    between atoms: _465  and  _466
REMARK  175  A    between atoms: _465  and  _468
REMARK  176  A    between atoms: _468  and  _469
REMARK  177  A    between atoms: _479  and  _481
REMARK  178  A    between atoms: _481  and  _482
REMARK  179  A    between atoms: _485  and  _487
REMARK  180  A    between atoms: _487  and  _488
REMARK  181  A    between atoms: _487  and  _490
REMARK  182  A    between atoms: _490  and  _491
REMARK  183  A    between atoms: _496  and  _497
REMARK  184  A    between atoms: _499  and  _501
REMARK  185  A    between atoms: _501  and  _502
REMARK  186  A    between atoms: _501  and  _504
REMARK  187  A    between atoms: _504  and  _505
REMARK  188  A    between atoms: _510  and  _511
REMARK  189  A    between atoms: _513  and  _515
REMARK  190  A    between atoms: _515  and  _516
REMARK  191  A    between atoms: _515  and  _518
REMARK  192  A    between atoms: _518  and  _519
REMARK  193  A    between atoms: _519  and  _520
REMARK  194  A    between atoms: _523  and  _525
REMARK  195  A    between atoms: _525  and  _526
REMARK  196  A    between atoms: _525  and  _528
REMARK  197  A    between atoms: _528  and  _529
REMARK  198  A    between atoms: _529  and  _530
REMARK  199  A    between atoms: _532  and  _534
REMARK  200  A    between atoms: _534  and  _535
REMARK  201  A    between atoms: _534  and  _537
REMARK  202  A    between atoms: _540  and  _542
REMARK  203  A    between atoms: _542  and  _543
REMARK  204  A    between atoms: _542  and  _545
REMARK  205  A    between atoms: _545  and  _546
REMARK  206  A    between atoms: _556  and  _558
REMARK  207  A    between atoms: _558  and  _559
REMARK  208  A    between atoms: _562  and  _564
REMARK  209  A    between atoms: _564  and  _565
REMARK  210  A    between atoms: _564  and  _567
REMARK  211  A    between atoms: _567  and  _568
REMARK  212  A    between atoms: _571  and  _573
REMARK  213  A    between atoms: _573  and  _574
REMARK  214  A    between atoms: _573  and  _576
REMARK  215  A    between atoms: _576  and  _577
REMARK                            x       y       z     vdW  Elec       q    Type
REMARK                         _______ _______ _______ _____ _____    ______ ____
ROOT
ATOM      1  C   ASP A   1      -2.983  13.731 -19.457  0.00  0.00    +0.239 C 
ATOM      2  O   ASP A   1      -2.528  14.663 -18.804  0.00  0.00    -0.274 OA
ATOM      3  N   LEU A   2      -2.223  12.948 -20.226  0.00  0.00    -0.298 N 
ATOM      4  H   LEU A   2      -2.669  12.152 -20.725  0.00  0.00    +0.150 HD
ENDROOT
BRANCH   1   5
ATOM      5  CA  ASP A   1      -4.483  13.415 -19.405  0.00  0.00    +0.156 C 
BRANCH   5   6
ATOM      6  N   ASP A   1      -4.897  12.338 -20.324  0.00  0.00    -0.238 NA
ATOM      7  H   ASP A   1      -5.083  11.393 -19.932  0.00  0.00    +0.142 HD
ENDBRANCH   5   6
BRANCH   5   8
ATOM      8  CB  ASP A   1      -4.909  13.094 -17.957  0.00  0.00    +0.140 C 
BRANCH   8   9
ATOM      9  CG  ASP A   1      -4.546  11.686 -17.540  0.00  0.00    +0.367 C 
ATOM     10  OD2 ASP A   1      -3.359  11.420 -17.281  0.00  0.00    -0.246 OA
ATOM     11  OD1 ASP A   1      -5.447  10.832 -17.465  0.00  0.00    -0.246 OA
ENDBRANCH   8   9
ENDBRANCH   5   8
ENDBRANCH   1   5
BRANCH   3  12
ATOM     12  CA  LEU A   2      -0.779  13.168 -20.395  0.00  0.00    +0.137 C 
BRANCH  12  13
ATOM     13  C   LEU A   2      -0.407  13.807 -21.737  0.00  0.00    +0.227 C 
ATOM     14  O   LEU A   2       0.709  14.315 -21.889  0.00  0.00    -0.286 OA
ENDBRANCH  12  13
BRANCH  12  15
ATOM     15  CB  LEU A   2       0.012  11.871 -20.182  0.00  0.00    +0.028 C 
BRANCH  15  16
ATOM     16  CG  LEU A   2      -0.214  11.080 -18.886  0.00  0.00    +0.002 C 
ATOM     17  CD2 LEU A   2       0.296  11.843 -17.660  0.00  0.00    +0.000 C 
ATOM     18  CD1 LEU A   2       0.445   9.720 -18.990  0.00  0.00    +0.000 C 
ENDBRANCH  15  16
ENDBRANCH  12  15
ENDBRANCH   3  12
TORSDOF 8
REMARK  Name = ../refined-set-2016/3rm4/3rm4_pocket.pdb
REMARK  215 active torsions:
REMARK  status: ('A' for Active; 'I' for Inactive)
REMARK    1  A    between atoms: _1  and  _3
REMARK    2  A    between atoms: _3  and  _4
REMARK    3  A    between atoms: _3  and  _6
REMARK    4  A    between atoms: _6  and  _7
REMARK    5  A    between atoms: _12  and  _13
REMARK    6  A    between atoms: _15  and  _17
REMARK    7  A    between atoms: _17  and  _18
REMARK    8  A    between atoms: _17  and  _20
REMARK    9  A    between atoms: _20  and  _21
REMARK   10  A    between atoms: _24  and  _26
REMARK   11  A    between atoms: _26  and  _27
REMARK   12  A    between atoms: _26  and  _29
REMARK   13  A    between atoms: _29  and  _30
REMARK   14  A    between atoms: _40  and  _42
REMARK   15  A    between atoms: _42  and  _43
REMARK   16  A    between atoms: _42  and  _45
REMARK   17  A    between atoms: _45  and  _46
REMARK   18  A    between atoms: _46  and  _47
REMARK   19  A    between atoms: _47  and  _48
REMARK   20  A    between atoms: _57  and  _59
REMARK   21  A    between atoms: _59  and  _60
REMARK   22  A    between atoms: _59  and  _62
REMARK   23  A    between atoms: _62  and  _63
REMARK   24  A    between atoms: _66  and  _68
REMARK   25  A    between atoms: _68  and  _69
REMARK   26  A    between atoms: _72  and  _74
REMARK   27  A    between atoms: _74  and  _75
REMARK   28  A    between atoms: _74  and  _77
REMARK   29  A    between atoms: _77  and  _78
REMARK   30  A    between atoms: _84  and  _86
REMARK   31  A    between atoms: _86  and  _87
REMARK   32  A    between atoms: _90  and  _92
REMARK   33  A    between atoms: _92  and  _93
REMARK   34  A    between atoms: _92  and  _95
REMARK   35  A    between atoms: _95  and  _96
REMARK   36  A    between atoms: _99  and  _101
REMARK   37  A    between atoms: _101  and  _102
REMARK   38  A    between atoms: _104  and  _106
REMARK   39  A    between atoms: _106  and  _107
REMARK   40  A    between atoms: _109  and  _111
REMARK   41  A    between atoms: _111  and  _112
REMARK   42  A    between atoms: _111  and  _114
REMARK   43  A    between atoms: _114  and  _115
REMARK   44  A    between atoms: _125  and  _127
REMARK   45  A    between atoms: _127  and  _128
REMARK   46  A    between atoms: _127  and  _130
REMARK   47  A    between atoms: _130  and  _131
REMARK   48  A    between atoms: _136  and  _138
REMARK   49  A    between atoms: _138  and  _139
REMARK   50  A    between atoms: _138  and  _141
REMARK   51  A    between atoms: _141  and  _142
REMARK   52  A    between atoms: _145  and  _147
REMARK   53  A    between atoms: _147  and  _148
REMARK   54  A    between atoms: _147  and  _150
REMARK   55  A    between atoms: _150  and  _151
REMARK   56  A    between atoms: _157  and  _159
REMARK   57  A    between atoms: _159  and  _160
REMARK   58  A    between atoms: _159  and  _162
REMARK   59  A    between atoms: _162  and  _163
REMARK   60  A    between atoms: _166  and  _168
REMARK   61  A    between atoms: _168  and  _169
REMARK   62  A    between atoms: _168  and  _171
REMARK   63  A    between atoms: _171  and  _172
REMARK   64  A    between atoms: _182  and  _184
REMARK   65  A    between atoms: _184  and  _185
REMARK   66  A    between atoms: _184  and  _187
REMARK   67  A    between atoms: _187  and  _188
REMARK   68  A    between atoms: _188  and  _189
REMARK   69  A    between atoms: _192  and  _194
REMARK   70  A    between atoms: _194  and  _195
REMARK   71  A    between atoms: _194  and  _197
REMARK   72  A    between atoms: _197  and  _198
REMARK   73  A    between atoms: _203  and  _204
REMARK   74  A    between atoms: _206  and  _208
REMARK   75  A    between atoms: _208  and  _209
REMARK   76  A    between atoms: _208  and  _211
REMARK   77  A    between atoms: _211  and  _212
REMARK   78  A    between atoms: _212  and  _213
REMARK   79  A    between atoms: _213  and  _214
REMARK   80  A    between atoms: _223  and  _225
REMARK   81  A    between atoms: _225  and  _226
REMARK   82  A    between atoms: _229  and  _231
REMARK   83  A    between atoms: _231  and  _232
REMARK   84  A    between atoms: _235  and  _237
REMARK   85  A    between atoms: _237  and  _238
REMARK   86  A    between atoms: _237  and  _240
REMARK   87  A    between atoms: _243  and  _245
REMARK   88  A    between atoms: _245  and  _246
REMARK   89  A    between atoms: _245  and  _248
REMARK   90  A    between atoms: _248  and  _249
REMARK   91  A    between atoms: _254  and  _256
REMARK   92  A    between atoms: _256  and  _257
REMARK   93  A    between atoms: _256  and  _259
REMARK   94  A    between atoms: _262  and  _264
REMARK   95  A    between atoms: _264  and  _265
REMARK   96  A    between atoms: _264  and  _267
REMARK   97  A    between atoms: _267  and  _268
REMARK   98  A    between atoms: _268  and  _269
REMARK   99  A    between atoms: _271  and  _273
REMARK  100  A    between atoms: _273  and  _274
REMARK  101  A    between atoms: _273  and  _276
REMARK  102  A    between atoms: _276  and  _277
REMARK  103  A    between atoms: _280  and  _282
REMARK  104  A    between atoms: _282  and  _283
REMARK  105  A    between atoms: _282  and  _285
REMARK  106  A    between atoms: _285  and  _286
REMARK  107  A    between atoms: _291  and  _292
REMARK  108  A    between atoms: _294  and  _296
REMARK  109  A    between atoms: _296  and  _297
REMARK  110  A    between atoms: _296  and  _299
REMARK  111  A    between atoms: _299  and  _300
REMARK  112  A    between atoms: _303  and  _305
REMARK  113  A    between atoms: _305  and  _306
REMARK  114  A    between atoms: _305  and  _308
REMARK  115  A    between atoms: _308  and  _309
REMARK  116  A    between atoms: _319  and  _321
REMARK  117  A    between atoms: _321  and  _322
REMARK  118  A    between atoms: _321  and  _324
REMARK  119  A    between atoms: _324  and  _325
REMARK  120  A    between atoms: _330  and  _332
REMARK  121  A    between atoms: _332  and  _333
REMARK  122  A    between atoms: _335  and  _337
REMARK  123  A    between atoms: _337  and  _338
REMARK  124  A    between atoms: _337  and  _340
REMARK  125  A    between atoms: _340  and  _341
REMARK  126  A    between atoms: _348  and  _349
REMARK  127  A    between atoms: _354  and  _356
REMARK  128  A    between atoms: _356  and  _357
REMARK  129  A    between atoms: _356  and  _359
REMARK  130  A    between atoms: _359  and  _360
REMARK  131  A    between atoms: _363  and  _365
REMARK  132  A    between atoms: _365  and  _366
REMARK  133  A    between atoms: _365  and  _368
REMARK  134  A    between atoms: _368  and  _369
REMARK  135  A    between atoms: _374  and  _375
REMARK  136  A    between atoms: _377  and  _379
REMARK  137  A    between atoms: _379  and  _380
REMARK  138  A    between atoms: _382  and  _384
REMARK  139  A    between atoms: _384  and  _385
REMARK  140  A    between atoms: _384  and  _387
REMARK  141  A    between atoms: _387  and  _388
REMARK  142  A    between atoms: _393  and  _395
REMARK  143  A    between atoms: _395  and  _396
REMARK  144  A    between atoms: _398  and  _400
REMARK  145  A    between atoms: _400  and  _401
REMARK  146  A    between atoms: _400  and  _403
REMARK  147  A    between atoms: _403  and  _404
REMARK  148  A    between atoms: _409  and  _410
REMARK  149  A    between atoms: _412  and  _414
REMARK  150  A    between atoms: _414  and  _415
REMARK  151  A    between atoms: _418  and  _420
REMARK  152  A    between atoms: _420  and  _421
REMARK  153  A    between atoms: _420  and  _423
REMARK  154  A    between atoms: _423  and  _424
REMARK  155  A    between atoms: _424  and  _425
REMARK  156  A    between atoms: _425  and  _426
REMARK  157  A    between atoms: _426  and  _427
REMARK  158  A    between atoms: _431  and  _433
REMARK  159  A    between atoms: _433  and  _434
REMARK  160  A    between atoms: _433  and  _436
REMARK  161  A    between atoms: _436  and  _437
REMARK  162  A    between atoms: _437  and  _438
REMARK  163  A    between atoms: _441  and  _443
REMARK  164  A    between atoms: _443  and  _444
REMARK  165  A    between atoms: _443  and  _446
REMARK  166  A    between atoms: _446  and  _447
REMARK  167  A    between atoms: _449  and  _451
REMARK  168  A    between atoms: _451  and  _452
REMARK  169  A    between atoms: _454  and  _456
REMARK  170  A    between atoms: _456  and  _457
REMARK  171  A    between atoms: _456  and  _459
REMARK  172  A    between atoms: _459  and  _460
REMARK  173  A    between atoms: _463  and  _465
REMARK  174  A    between atoms: _465  and  _466
REMARK  175  A    between atoms: _465  and  _468
REMARK  176  A    between atoms: _468  and  _469
REMARK  177  A    between atoms: _479  and  _481
REMARK  178  A    between atoms: _481  and  _482
REMARK  179  A    between atoms: _485  and  _487
REMARK  180  A    between atoms: _487  and  _488
REMARK  181  A    between atoms: _487  and  _490
REMARK  182  A    between atoms: _490  and  _491
REMARK  183  A    between atoms: _496  and  _497
REMARK  184  A    between atoms: _499  and  _501
REMARK  185  A    between atoms: _501  and  _502
REMARK  186  A    between atoms: _501  and  _504
REMARK  187  A    between atoms: _504  and  _505
REMARK  188  A    between atoms: _510  and  _511
REMARK  189  A    between atoms: _513  and  _515
REMARK  190  A    between atoms: _515  and  _516
REMARK  191  A    between atoms: _515  and  _518
REMARK  192  A    between atoms: _518  and  _519
REMARK  193  A    between atoms: _519  and  _520
REMARK  194  A    between atoms: _523  and  _525
REMARK  195  A    between atoms: _525  and  _526
REMARK  196  A    between atoms: _525  and  _528
REMARK  197  A    between atoms: _528  and  _529
REMARK  198  A    between atoms: _529  and  _530
REMARK  199  A    between atoms: _532  and  _534
REMARK  200  A    between atoms: _534  and  _535
REMARK  201  A    between atoms: _534  and  _537
REMARK  202  A    between atoms: _540  and  _542
REMARK  203  A    between atoms: _542  and  _543
REMARK  204  A    between atoms: _542  and  _545
REMARK  205  A    between atoms: _545  and  _546
REMARK  206  A    between atoms: _556  and  _558
REMARK  207  A    between atoms: _558  and  _559
REMARK  208  A    between atoms: _562  and  _564
REMARK  209  A    between atoms: _564  and  _565
REMARK  210  A    between atoms: _564  and  _567
REMARK  211  A    between atoms: _567  and  _568
REMARK  212  A    between atoms: _571  and  _573
REMARK  213  A    between atoms: _573  and  _574
REMARK  214  A    between atoms: _573  and  _576
REMARK  215  A    between atoms: _576  and  _577
REMARK                            x       y       z     vdW  Elec       q    Type
REMARK                         _______ _______ _______ _____ _____    ______ ____
ROOT
ATOM      1  O   HOH     1      -2.302   9.561 -15.829  0.00  0.00    +0.000 OA
ENDROOT
TORSDOF 0
REMARK  Name = ../refined-set-2016/3rm4/3rm4_pocket.pdb
REMARK  215 active torsions:
REMARK  status: ('A' for Active; 'I' for Inactive)
REMARK    1  A    between atoms: _1  and  _3
REMARK    2  A    between atoms: _3  and  _4
REMARK    3  A    between atoms: _3  and  _6
REMARK    4  A    between atoms: _6  and  _7
REMARK    5  A    between atoms: _12  and  _13
REMARK    6  A    between atoms: _15  and  _17
REMARK    7  A    between atoms: _17  and  _18
REMARK    8  A    between atoms: _17  and  _20
REMARK    9  A    between atoms: _20  and  _21
REMARK   10  A    between atoms: _24  and  _26
REMARK   11  A    between atoms: _26  and  _27
REMARK   12  A    between atoms: _26  and  _29
REMARK   13  A    between atoms: _29  and  _30
REMARK   14  A    between atoms: _40  and  _42
REMARK   15  A    between atoms: _42  and  _43
REMARK   16  A    between atoms: _42  and  _45
REMARK   17  A    between atoms: _45  and  _46
REMARK   18  A    between atoms: _46  and  _47
REMARK   19  A    between atoms: _47  and  _48
REMARK   20  A    between atoms: _57  and  _59
REMARK   21  A    between atoms: _59  and  _60
REMARK   22  A    between atoms: _59  and  _62
REMARK   23  A    between atoms: _62  and  _63
REMARK   24  A    between atoms: _66  and  _68
REMARK   25  A    between atoms: _68  and  _69
REMARK   26  A    between atoms: _72  and  _74
REMARK   27  A    between atoms: _74  and  _75
REMARK   28  A    between atoms: _74  and  _77
REMARK   29  A    between atoms: _77  and  _78
REMARK   30  A    between atoms: _84  and  _86
REMARK   31  A    between atoms: _86  and  _87
REMARK   32  A    between atoms: _90  and  _92
REMARK   33  A    between atoms: _92  and  _93
REMARK   34  A    between atoms: _92  and  _95
REMARK   35  A    between atoms: _95  and  _96
REMARK   36  A    between atoms: _99  and  _101
REMARK   37  A    between atoms: _101  and  _102
REMARK   38  A    between atoms: _104  and  _106
REMARK   39  A    between atoms: _106  and  _107
REMARK   40  A    between atoms: _109  and  _111
REMARK   41  A    between atoms: _111  and  _112
REMARK   42  A    between atoms: _111  and  _114
REMARK   43  A    between atoms: _114  and  _115
REMARK   44  A    between atoms: _125  and  _127
REMARK   45  A    between atoms: _127  and  _128
REMARK   46  A    between atoms: _127  and  _130
REMARK   47  A    between atoms: _130  and  _131
REMARK   48  A    between atoms: _136  and  _138
REMARK   49  A    between atoms: _138  and  _139
REMARK   50  A    between atoms: _138  and  _141
REMARK   51  A    between atoms: _141  and  _142
REMARK   52  A    between atoms: _145  and  _147
REMARK   53  A    between atoms: _147  and  _148
REMARK   54  A    between atoms: _147  and  _150
REMARK   55  A    between atoms: _150  and  _151
REMARK   56  A    between atoms: _157  and  _159
REMARK   57  A    between atoms: _159  and  _160
REMARK   58  A    between atoms: _159  and  _162
REMARK   59  A    between atoms: _162  and  _163
REMARK   60  A    between atoms: _166  and  _168
REMARK   61  A    between atoms: _168  and  _169
REMARK   62  A    between atoms: _168  and  _171
REMARK   63  A    between atoms: _171  and  _172
REMARK   64  A    between atoms: _182  and  _184
REMARK   65  A    between atoms: _184  and  _185
REMARK   66  A    between atoms: _184  and  _187
REMARK   67  A    between atoms: _187  and  _188
REMARK   68  A    between atoms: _188  and  _189
REMARK   69  A    between atoms: _192  and  _194
REMARK   70  A    between atoms: _194  and  _195
REMARK   71  A    between atoms: _194  and  _197
REMARK   72  A    between atoms: _197  and  _198
REMARK   73  A    between atoms: _203  and  _204
REMARK   74  A    between atoms: _206  and  _208
REMARK   75  A    between atoms: _208  and  _209
REMARK   76  A    between atoms: _208  and  _211
REMARK   77  A    between atoms: _211  and  _212
REMARK   78  A    between atoms: _212  and  _213
REMARK   79  A    between atoms: _213  and  _214
REMARK   80  A    between atoms: _223  and  _225
REMARK   81  A    between atoms: _225  and  _226
REMARK   82  A    between atoms: _229  and  _231
REMARK   83  A    between atoms: _231  and  _232
REMARK   84  A    between atoms: _235  and  _237
REMARK   85  A    between atoms: _237  and  _238
REMARK   86  A    between atoms: _237  and  _240
REMARK   87  A    between atoms: _243  and  _245
REMARK   88  A    between atoms: _245  and  _246
REMARK   89  A    between atoms: _245  and  _248
REMARK   90  A    between atoms: _248  and  _249
REMARK   91  A    between atoms: _254  and  _256
REMARK   92  A    between atoms: _256  and  _257
REMARK   93  A    between atoms: _256  and  _259
REMARK   94  A    between atoms: _262  and  _264
REMARK   95  A    between atoms: _264  and  _265
REMARK   96  A    between atoms: _264  and  _267
REMARK   97  A    between atoms: _267  and  _268
REMARK   98  A    between atoms: _268  and  _269
REMARK   99  A    between atoms: _271  and  _273
REMARK  100  A    between atoms: _273  and  _274
REMARK  101  A    between atoms: _273  and  _276
REMARK  102  A    between atoms: _276  and  _277
REMARK  103  A    between atoms: _280  and  _282
REMARK  104  A    between atoms: _282  and  _283
REMARK  105  A    between atoms: _282  and  _285
REMARK  106  A    between atoms: _285  and  _286
REMARK  107  A    between atoms: _291  and  _292
REMARK  108  A    between atoms: _294  and  _296
REMARK  109  A    between atoms: _296  and  _297
REMARK  110  A    between atoms: _296  and  _299
REMARK  111  A    between atoms: _299  and  _300
REMARK  112  A    between atoms: _303  and  _305
REMARK  113  A    between atoms: _305  and  _306
REMARK  114  A    between atoms: _305  and  _308
REMARK  115  A    between atoms: _308  and  _309
REMARK  116  A    between atoms: _319  and  _321
REMARK  117  A    between atoms: _321  and  _322
REMARK  118  A    between atoms: _321  and  _324
REMARK  119  A    between atoms: _324  and  _325
REMARK  120  A    between atoms: _330  and  _332
REMARK  121  A    between atoms: _332  and  _333
REMARK  122  A    between atoms: _335  and  _337
REMARK  123  A    between atoms: _337  and  _338
REMARK  124  A    between atoms: _337  and  _340
REMARK  125  A    between atoms: _340  and  _341
REMARK  126  A    between atoms: _348  and  _349
REMARK  127  A    between atoms: _354  and  _356
REMARK  128  A    between atoms: _356  and  _357
REMARK  129  A    between atoms: _356  and  _359
REMARK  130  A    between atoms: _359  and  _360
REMARK  131  A    between atoms: _363  and  _365
REMARK  132  A    between atoms: _365  and  _366
REMARK  133  A    between atoms: _365  and  _368
REMARK  134  A    between atoms: _368  and  _369
REMARK  135  A    between atoms: _374  and  _375
REMARK  136  A    between atoms: _377  and  _379
REMARK  137  A    between atoms: _379  and  _380
REMARK  138  A    between atoms: _382  and  _384
REMARK  139  A    between atoms: _384  and  _385
REMARK  140  A    between atoms: _384  and  _387
REMARK  141  A    between atoms: _387  and  _388
REMARK  142  A    between atoms: _393  and  _395
REMARK  143  A    between atoms: _395  and  _396
REMARK  144  A    between atoms: _398  and  _400
REMARK  145  A    between atoms: _400  and  _401
REMARK  146  A    between atoms: _400  and  _403
REMARK  147  A    between atoms: _403  and  _404
REMARK  148  A    between atoms: _409  and  _410
REMARK  149  A    between atoms: _412  and  _414
REMARK  150  A    between atoms: _414  and  _415
REMARK  151  A    between atoms: _418  and  _420
REMARK  152  A    between atoms: _420  and  _421
REMARK  153  A    between atoms: _420  and  _423
REMARK  154  A    between atoms: _423  and  _424
REMARK  155  A    between atoms: _424  and  _425
REMARK  156  A    between atoms: _425  and  _426
REMARK  157  A    between atoms: _426  and  _427
REMARK  158  A    between atoms: _431  and  _433
REMARK  159  A    between atoms: _433  and  _434
REMARK  160  A    between atoms: _433  and  _436
REMARK  161  A    between atoms: _436  and  _437
REMARK  162  A    between atoms: _437  and  _438
REMARK  163  A    between atoms: _441  and  _443
REMARK  164  A    between atoms: _443  and  _444
REMARK  165  A    between atoms: _443  and  _446
REMARK  166  A    between atoms: _446  and  _447
REMARK  167  A    between atoms: _449  and  _451
REMARK  168  A    between atoms: _451  and  _452
REMARK  169  A    between atoms: _454  and  _456
REMARK  170  A    between atoms: _456  and  _457
REMARK  171  A    between atoms: _456  and  _459
REMARK  172  A    between atoms: _459  and  _460
REMARK  173  A    between atoms: _463  and  _465
REMARK  174  A    between atoms: _465  and  _466
REMARK  175  A    between atoms: _465  and  _468
REMARK  176  A    between atoms: _468  and  _469
REMARK  177  A    between atoms: _479  and  _481
REMARK  178  A    between atoms: _481  and  _482
REMARK  179  A    between atoms: _485  and  _487
REMARK  180  A    between atoms: _487  and  _488
REMARK  181  A    between atoms: _487  and  _490
REMARK  182  A    between atoms: _490  and  _491
REMARK  183  A    between atoms: _496  and  _497
REMARK  184  A    between atoms: _499  and  _501
REMARK  185  A    between atoms: _501  and  _502
REMARK  186  A    between atoms: _501  and  _504
REMARK  187  A    between atoms: _504  and  _505
REMARK  188  A    between atoms: _510  and  _511
REMARK  189  A    between atoms: _513  and  _515
REMARK  190  A    between atoms: _515  and  _516
REMARK  191  A    between atoms: _515  and  _518
REMARK  192  A    between atoms: _518  and  _519
REMARK  193  A    between atoms: _519  and  _520
REMARK  194  A    between atoms: _523  and  _525
REMARK  195  A    between atoms: _525  and  _526
REMARK  196  A    between atoms: _525  and  _528
REMARK  197  A    between atoms: _528  and  _529
REMARK  198  A    between atoms: _529  and  _530
REMARK  199  A    between atoms: _532  and  _534
REMARK  200  A    between atoms: _534  and  _535
REMARK  201  A    between atoms: _534  and  _537
REMARK  202  A    between atoms: _540  and  _542
REMARK  203  A    between atoms: _542  and  _543
REMARK  204  A    between atoms: _542  and  _545
REMARK  205  A    between atoms: _545  and  _546
REMARK  206  A    between atoms: _556  and  _558
REMARK  207  A    between atoms: _558  and  _559
REMARK  208  A    between atoms: _562  and  _564
REMARK  209  A    between atoms: _564  and  _565
REMARK  210  A    between atoms: _564  and  _567
REMARK  211  A    between atoms: _567  and  _568
REMARK  212  A    between atoms: _571  and  _573
REMARK  213  A    between atoms: _573  and  _574
REMARK  214  A    between atoms: _573  and  _576
REMARK  215  A    between atoms: _576  and  _577
REMARK                            x       y       z     vdW  Elec       q    Type
REMARK                         _______ _______ _______ _____ _____    ______ ____
ROOT
ATOM      1  O   HOH     1      -2.094  15.768 -16.413  0.00  0.00    +0.000 OA
ENDROOT
TORSDOF 0
REMARK  Name = ../refined-set-2016/3rm4/3rm4_pocket.pdb
REMARK  215 active torsions:
REMARK  status: ('A' for Active; 'I' for Inactive)
REMARK    1  A    between atoms: _1  and  _3
REMARK    2  A    between atoms: _3  and  _4
REMARK    3  A    between atoms: _3  and  _6
REMARK    4  A    between atoms: _6  and  _7
REMARK    5  A    between atoms: _12  and  _13
REMARK    6  A    between atoms: _15  and  _17
REMARK    7  A    between atoms: _17  and  _18
REMARK    8  A    between atoms: _17  and  _20
REMARK    9  A    between atoms: _20  and  _21
REMARK   10  A    between atoms: _24  and  _26
REMARK   11  A    between atoms: _26  and  _27
REMARK   12  A    between atoms: _26  and  _29
REMARK   13  A    between atoms: _29  and  _30
REMARK   14  A    between atoms: _40  and  _42
REMARK   15  A    between atoms: _42  and  _43
REMARK   16  A    between atoms: _42  and  _45
REMARK   17  A    between atoms: _45  and  _46
REMARK   18  A    between atoms: _46  and  _47
REMARK   19  A    between atoms: _47  and  _48
REMARK   20  A    between atoms: _57  and  _59
REMARK   21  A    between atoms: _59  and  _60
REMARK   22  A    between atoms: _59  and  _62
REMARK   23  A    between atoms: _62  and  _63
REMARK   24  A    between atoms: _66  and  _68
REMARK   25  A    between atoms: _68  and  _69
REMARK   26  A    between atoms: _72  and  _74
REMARK   27  A    between atoms: _74  and  _75
REMARK   28  A    between atoms: _74  and  _77
REMARK   29  A    between atoms: _77  and  _78
REMARK   30  A    between atoms: _84  and  _86
REMARK   31  A    between atoms: _86  and  _87
REMARK   32  A    between atoms: _90  and  _92
REMARK   33  A    between atoms: _92  and  _93
REMARK   34  A    between atoms: _92  and  _95
REMARK   35  A    between atoms: _95  and  _96
REMARK   36  A    between atoms: _99  and  _101
REMARK   37  A    between atoms: _101  and  _102
REMARK   38  A    between atoms: _104  and  _106
REMARK   39  A    between atoms: _106  and  _107
REMARK   40  A    between atoms: _109  and  _111
REMARK   41  A    between atoms: _111  and  _112
REMARK   42  A    between atoms: _111  and  _114
REMARK   43  A    between atoms: _114  and  _115
REMARK   44  A    between atoms: _125  and  _127
REMARK   45  A    between atoms: _127  and  _128
REMARK   46  A    between atoms: _127  and  _130
REMARK   47  A    between atoms: _130  and  _131
REMARK   48  A    between atoms: _136  and  _138
REMARK   49  A    between atoms: _138  and  _139
REMARK   50  A    between atoms: _138  and  _141
REMARK   51  A    between atoms: _141  and  _142
REMARK   52  A    between atoms: _145  and  _147
REMARK   53  A    between atoms: _147  and  _148
REMARK   54  A    between atoms: _147  and  _150
REMARK   55  A    between atoms: _150  and  _151
REMARK   56  A    between atoms: _157  and  _159
REMARK   57  A    between atoms: _159  and  _160
REMARK   58  A    between atoms: _159  and  _162
REMARK   59  A    between atoms: _162  and  _163
REMARK   60  A    between atoms: _166  and  _168
REMARK   61  A    between atoms: _168  and  _169
REMARK   62  A    between atoms: _168  and  _171
REMARK   63  A    between atoms: _171  and  _172
REMARK   64  A    between atoms: _182  and  _184
REMARK   65  A    between atoms: _184  and  _185
REMARK   66  A    between atoms: _184  and  _187
REMARK   67  A    between atoms: _187  and  _188
REMARK   68  A    between atoms: _188  and  _189
REMARK   69  A    between atoms: _192  and  _194
REMARK   70  A    between atoms: _194  and  _195
REMARK   71  A    between atoms: _194  and  _197
REMARK   72  A    between atoms: _197  and  _198
REMARK   73  A    between atoms: _203  and  _204
REMARK   74  A    between atoms: _206  and  _208
REMARK   75  A    between atoms: _208  and  _209
REMARK   76  A    between atoms: _208  and  _211
REMARK   77  A    between atoms: _211  and  _212
REMARK   78  A    between atoms: _212  and  _213
REMARK   79  A    between atoms: _213  and  _214
REMARK   80  A    between atoms: _223  and  _225
REMARK   81  A    between atoms: _225  and  _226
REMARK   82  A    between atoms: _229  and  _231
REMARK   83  A    between atoms: _231  and  _232
REMARK   84  A    between atoms: _235  and  _237
REMARK   85  A    between atoms: _237  and  _238
REMARK   86  A    between atoms: _237  and  _240
REMARK   87  A    between atoms: _243  and  _245
REMARK   88  A    between atoms: _245  and  _246
REMARK   89  A    between atoms: _245  and  _248
REMARK   90  A    between atoms: _248  and  _249
REMARK   91  A    between atoms: _254  and  _256
REMARK   92  A    between atoms: _256  and  _257
REMARK   93  A    between atoms: _256  and  _259
REMARK   94  A    between atoms: _262  and  _264
REMARK   95  A    between atoms: _264  and  _265
REMARK   96  A    between atoms: _264  and  _267
REMARK   97  A    between atoms: _267  and  _268
REMARK   98  A    between atoms: _268  and  _269
REMARK   99  A    between atoms: _271  and  _273
REMARK  100  A    between atoms: _273  and  _274
REMARK  101  A    between atoms: _273  and  _276
REMARK  102  A    between atoms: _276  and  _277
REMARK  103  A    between atoms: _280  and  _282
REMARK  104  A    between atoms: _282  and  _283
REMARK  105  A    between atoms: _282  and  _285
REMARK  106  A    between atoms: _285  and  _286
REMARK  107  A    between atoms: _291  and  _292
REMARK  108  A    between atoms: _294  and  _296
REMARK  109  A    between atoms: _296  and  _297
REMARK  110  A    between atoms: _296  and  _299
REMARK  111  A    between atoms: _299  and  _300
REMARK  112  A    between atoms: _303  and  _305
REMARK  113  A    between atoms: _305  and  _306
REMARK  114  A    between atoms: _305  and  _308
REMARK  115  A    between atoms: _308  and  _309
REMARK  116  A    between atoms: _319  and  _321
REMARK  117  A    between atoms: _321  and  _322
REMARK  118  A    between atoms: _321  and  _324
REMARK  119  A    between atoms: _324  and  _325
REMARK  120  A    between atoms: _330  and  _332
REMARK  121  A    between atoms: _332  and  _333
REMARK  122  A    between atoms: _335  and  _337
REMARK  123  A    between atoms: _337  and  _338
REMARK  124  A    between atoms: _337  and  _340
REMARK  125  A    between atoms: _340  and  _341
REMARK  126  A    between atoms: _348  and  _349
REMARK  127  A    between atoms: _354  and  _356
REMARK  128  A    between atoms: _356  and  _357
REMARK  129  A    between atoms: _356  and  _359
REMARK  130  A    between atoms: _359  and  _360
REMARK  131  A    between atoms: _363  and  _365
REMARK  132  A    between atoms: _365  and  _366
REMARK  133  A    between atoms: _365  and  _368
REMARK  134  A    between atoms: _368  and  _369
REMARK  135  A    between atoms: _374  and  _375
REMARK  136  A    between atoms: _377  and  _379
REMARK  137  A    between atoms: _379  and  _380
REMARK  138  A    between atoms: _382  and  _384
REMARK  139  A    between atoms: _384  and  _385
REMARK  140  A    between atoms: _384  and  _387
REMARK  141  A    between atoms: _387  and  _388
REMARK  142  A    between atoms: _393  and  _395
REMARK  143  A    between atoms: _395  and  _396
REMARK  144  A    between atoms: _398  and  _400
REMARK  145  A    between atoms: _400  and  _401
REMARK  146  A    between atoms: _400  and  _403
REMARK  147  A    between atoms: _403  and  _404
REMARK  148  A    between atoms: _409  and  _410
REMARK  149  A    between atoms: _412  and  _414
REMARK  150  A    between atoms: _414  and  _415
REMARK  151  A    between atoms: _418  and  _420
REMARK  152  A    between atoms: _420  and  _421
REMARK  153  A    between atoms: _420  and  _423
REMARK  154  A    between atoms: _423  and  _424
REMARK  155  A    between atoms: _424  and  _425
REMARK  156  A    between atoms: _425  and  _426
REMARK  157  A    between atoms: _426  and  _427
REMARK  158  A    between atoms: _431  and  _433
REMARK  159  A    between atoms: _433  and  _434
REMARK  160  A    between atoms: _433  and  _436
REMARK  161  A    between atoms: _436  and  _437
REMARK  162  A    between atoms: _437  and  _438
REMARK  163  A    between atoms: _441  and  _443
REMARK  164  A    between atoms: _443  and  _444
REMARK  165  A    between atoms: _443  and  _446
REMARK  166  A    between atoms: _446  and  _447
REMARK  167  A    between atoms: _449  and  _451
REMARK  168  A    between atoms: _451  and  _452
REMARK  169  A    between atoms: _454  and  _456
REMARK  170  A    between atoms: _456  and  _457
REMARK  171  A    between atoms: _456  and  _459
REMARK  172  A    between atoms: _459  and  _460
REMARK  173  A    between atoms: _463  and  _465
REMARK  174  A    between atoms: _465  and  _466
REMARK  175  A    between atoms: _465  and  _468
REMARK  176  A    between atoms: _468  and  _469
REMARK  177  A    between atoms: _479  and  _481
REMARK  178  A    between atoms: _481  and  _482
REMARK  179  A    between atoms: _485  and  _487
REMARK  180  A    between atoms: _487  and  _488
REMARK  181  A    between atoms: _487  and  _490
REMARK  182  A    between atoms: _490  and  _491
REMARK  183  A    between atoms: _496  and  _497
REMARK  184  A    between atoms: _499  and  _501
REMARK  185  A    between atoms: _501  and  _502
REMARK  186  A    between atoms: _501  and  _504
REMARK  187  A    between atoms: _504  and  _505
REMARK  188  A    between atoms: _510  and  _511
REMARK  189  A    between atoms: _513  and  _515
REMARK  190  A    between atoms: _515  and  _516
REMARK  191  A    between atoms: _515  and  _518
REMARK  192  A    between atoms: _518  and  _519
REMARK  193  A    between atoms: _519  and  _520
REMARK  194  A    between atoms: _523  and  _525
REMARK  195  A    between atoms: _525  and  _526
REMARK  196  A    between atoms: _525  and  _528
REMARK  197  A    between atoms: _528  and  _529
REMARK  198  A    between atoms: _529  and  _530
REMARK  199  A    between atoms: _532  and  _534
REMARK  200  A    between atoms: _534  and  _535
REMARK  201  A    between atoms: _534  and  _537
REMARK  202  A    between atoms: _540  and  _542
REMARK  203  A    between atoms: _542  and  _543
REMARK  204  A    between atoms: _542  and  _545
REMARK  205  A    between atoms: _545  and  _546
REMARK  206  A    between atoms: _556  and  _558
REMARK  207  A    between atoms: _558  and  _559
REMARK  208  A    between atoms: _562  and  _564
REMARK  209  A    between atoms: _564  and  _565
REMARK  210  A    between atoms: _564  and  _567
REMARK  211  A    between atoms: _567  and  _568
REMARK  212  A    between atoms: _571  and  _573
REMARK  213  A    between atoms: _573  and  _574
REMARK  214  A    between atoms: _573  and  _576
REMARK  215  A    between atoms: _576  and  _577
REMARK                            x       y       z     vdW  Elec       q    Type
REMARK                         _______ _______ _______ _____ _____    ______ ____
ROOT
ATOM      1  O   HOH     1      -6.373  -7.786 -17.900  0.00  0.00    +0.000 OA
ENDROOT
TORSDOF 0
REMARK  Name = ../refined-set-2016/3rm4/3rm4_pocket.pdb
REMARK  215 active torsions:
REMARK  status: ('A' for Active; 'I' for Inactive)
REMARK    1  A    between atoms: _1  and  _3
REMARK    2  A    between atoms: _3  and  _4
REMARK    3  A    between atoms: _3  and  _6
REMARK    4  A    between atoms: _6  and  _7
REMARK    5  A    between atoms: _12  and  _13
REMARK    6  A    between atoms: _15  and  _17
REMARK    7  A    between atoms: _17  and  _18
REMARK    8  A    between atoms: _17  and  _20
REMARK    9  A    between atoms: _20  and  _21
REMARK   10  A    between atoms: _24  and  _26
REMARK   11  A    between atoms: _26  and  _27
REMARK   12  A    between atoms: _26  and  _29
REMARK   13  A    between atoms: _29  and  _30
REMARK   14  A    between atoms: _40  and  _42
REMARK   15  A    between atoms: _42  and  _43
REMARK   16  A    between atoms: _42  and  _45
REMARK   17  A    between atoms: _45  and  _46
REMARK   18  A    between atoms: _46  and  _47
REMARK   19  A    between atoms: _47  and  _48
REMARK   20  A    between atoms: _57  and  _59
REMARK   21  A    between atoms: _59  and  _60
REMARK   22  A    between atoms: _59  and  _62
REMARK   23  A    between atoms: _62  and  _63
REMARK   24  A    between atoms: _66  and  _68
REMARK   25  A    between atoms: _68  and  _69
REMARK   26  A    between atoms: _72  and  _74
REMARK   27  A    between atoms: _74  and  _75
REMARK   28  A    between atoms: _74  and  _77
REMARK   29  A    between atoms: _77  and  _78
REMARK   30  A    between atoms: _84  and  _86
REMARK   31  A    between atoms: _86  and  _87
REMARK   32  A    between atoms: _90  and  _92
REMARK   33  A    between atoms: _92  and  _93
REMARK   34  A    between atoms: _92  and  _95
REMARK   35  A    between atoms: _95  and  _96
REMARK   36  A    between atoms: _99  and  _101
REMARK   37  A    between atoms: _101  and  _102
REMARK   38  A    between atoms: _104  and  _106
REMARK   39  A    between atoms: _106  and  _107
REMARK   40  A    between atoms: _109  and  _111
REMARK   41  A    between atoms: _111  and  _112
REMARK   42  A    between atoms: _111  and  _114
REMARK   43  A    between atoms: _114  and  _115
REMARK   44  A    between atoms: _125  and  _127
REMARK   45  A    between atoms: _127  and  _128
REMARK   46  A    between atoms: _127  and  _130
REMARK   47  A    between atoms: _130  and  _131
REMARK   48  A    between atoms: _136  and  _138
REMARK   49  A    between atoms: _138  and  _139
REMARK   50  A    between atoms: _138  and  _141
REMARK   51  A    between atoms: _141  and  _142
REMARK   52  A    between atoms: _145  and  _147
REMARK   53  A    between atoms: _147  and  _148
REMARK   54  A    between atoms: _147  and  _150
REMARK   55  A    between atoms: _150  and  _151
REMARK   56  A    between atoms: _157  and  _159
REMARK   57  A    between atoms: _159  and  _160
REMARK   58  A    between atoms: _159  and  _162
REMARK   59  A    between atoms: _162  and  _163
REMARK   60  A    between atoms: _166  and  _168
REMARK   61  A    between atoms: _168  and  _169
REMARK   62  A    between atoms: _168  and  _171
REMARK   63  A    between atoms: _171  and  _172
REMARK   64  A    between atoms: _182  and  _184
REMARK   65  A    between atoms: _184  and  _185
REMARK   66  A    between atoms: _184  and  _187
REMARK   67  A    between atoms: _187  and  _188
REMARK   68  A    between atoms: _188  and  _189
REMARK   69  A    between atoms: _192  and  _194
REMARK   70  A    between atoms: _194  and  _195
REMARK   71  A    between atoms: _194  and  _197
REMARK   72  A    between atoms: _197  and  _198
REMARK   73  A    between atoms: _203  and  _204
REMARK   74  A    between atoms: _206  and  _208
REMARK   75  A    between atoms: _208  and  _209
REMARK   76  A    between atoms: _208  and  _211
REMARK   77  A    between atoms: _211  and  _212
REMARK   78  A    between atoms: _212  and  _213
REMARK   79  A    between atoms: _213  and  _214
REMARK   80  A    between atoms: _223  and  _225
REMARK   81  A    between atoms: _225  and  _226
REMARK   82  A    between atoms: _229  and  _231
REMARK   83  A    between atoms: _231  and  _232
REMARK   84  A    between atoms: _235  and  _237
REMARK   85  A    between atoms: _237  and  _238
REMARK   86  A    between atoms: _237  and  _240
REMARK   87  A    between atoms: _243  and  _245
REMARK   88  A    between atoms: _245  and  _246
REMARK   89  A    between atoms: _245  and  _248
REMARK   90  A    between atoms: _248  and  _249
REMARK   91  A    between atoms: _254  and  _256
REMARK   92  A    between atoms: _256  and  _257
REMARK   93  A    between atoms: _256  and  _259
REMARK   94  A    between atoms: _262  and  _264
REMARK   95  A    between atoms: _264  and  _265
REMARK   96  A    between atoms: _264  and  _267
REMARK   97  A    between atoms: _267  and  _268
REMARK   98  A    between atoms: _268  and  _269
REMARK   99  A    between atoms: _271  and  _273
REMARK  100  A    between atoms: _273  and  _274
REMARK  101  A    between atoms: _273  and  _276
REMARK  102  A    between atoms: _276  and  _277
REMARK  103  A    between atoms: _280  and  _282
REMARK  104  A    between atoms: _282  and  _283
REMARK  105  A    between atoms: _282  and  _285
REMARK  106  A    between atoms: _285  and  _286
REMARK  107  A    between atoms: _291  and  _292
REMARK  108  A    between atoms: _294  and  _296
REMARK  109  A    between atoms: _296  and  _297
REMARK  110  A    between atoms: _296  and  _299
REMARK  111  A    between atoms: _299  and  _300
REMARK  112  A    between atoms: _303  and  _305
REMARK  113  A    between atoms: _305  and  _306
REMARK  114  A    between atoms: _305  and  _308
REMARK  115  A    between atoms: _308  and  _309
REMARK  116  A    between atoms: _319  and  _321
REMARK  117  A    between atoms: _321  and  _322
REMARK  118  A    between atoms: _321  and  _324
REMARK  119  A    between atoms: _324  and  _325
REMARK  120  A    between atoms: _330  and  _332
REMARK  121  A    between atoms: _332  and  _333
REMARK  122  A    between atoms: _335  and  _337
REMARK  123  A    between atoms: _337  and  _338
REMARK  124  A    between atoms: _337  and  _340
REMARK  125  A    between atoms: _340  and  _341
REMARK  126  A    between atoms: _348  and  _349
REMARK  127  A    between atoms: _354  and  _356
REMARK  128  A    between atoms: _356  and  _357
REMARK  129  A    between atoms: _356  and  _359
REMARK  130  A    between atoms: _359  and  _360
REMARK  131  A    between atoms: _363  and  _365
REMARK  132  A    between atoms: _365  and  _366
REMARK  133  A    between atoms: _365  and  _368
REMARK  134  A    between atoms: _368  and  _369
REMARK  135  A    between atoms: _374  and  _375
REMARK  136  A    between atoms: _377  and  _379
REMARK  137  A    between atoms: _379  and  _380
REMARK  138  A    between atoms: _382  and  _384
REMARK  139  A    between atoms: _384  and  _385
REMARK  140  A    between atoms: _384  and  _387
REMARK  141  A    between atoms: _387  and  _388
REMARK  142  A    between atoms: _393  and  _395
REMARK  143  A    between atoms: _395  and  _396
REMARK  144  A    between atoms: _398  and  _400
REMARK  145  A    between atoms: _400  and  _401
REMARK  146  A    between atoms: _400  and  _403
REMARK  147  A    between atoms: _403  and  _404
REMARK  148  A    between atoms: _409  and  _410
REMARK  149  A    between atoms: _412  and  _414
REMARK  150  A    between atoms: _414  and  _415
REMARK  151  A    between atoms: _418  and  _420
REMARK  152  A    between atoms: _420  and  _421
REMARK  153  A    between atoms: _420  and  _423
REMARK  154  A    between atoms: _423  and  _424
REMARK  155  A    between atoms: _424  and  _425
REMARK  156  A    between atoms: _425  and  _426
REMARK  157  A    between atoms: _426  and  _427
REMARK  158  A    between atoms: _431  and  _433
REMARK  159  A    between atoms: _433  and  _434
REMARK  160  A    between atoms: _433  and  _436
REMARK  161  A    between atoms: _436  and  _437
REMARK  162  A    between atoms: _437  and  _438
REMARK  163  A    between atoms: _441  and  _443
REMARK  164  A    between atoms: _443  and  _444
REMARK  165  A    between atoms: _443  and  _446
REMARK  166  A    between atoms: _446  and  _447
REMARK  167  A    between atoms: _449  and  _451
REMARK  168  A    between atoms: _451  and  _452
REMARK  169  A    between atoms: _454  and  _456
REMARK  170  A    between atoms: _456  and  _457
REMARK  171  A    between atoms: _456  and  _459
REMARK  172  A    between atoms: _459  and  _460
REMARK  173  A    between atoms: _463  and  _465
REMARK  174  A    between atoms: _465  and  _466
REMARK  175  A    between atoms: _465  and  _468
REMARK  176  A    between atoms: _468  and  _469
REMARK  177  A    between atoms: _479  and  _481
REMARK  178  A    between atoms: _481  and  _482
REMARK  179  A    between atoms: _485  and  _487
REMARK  180  A    between atoms: _487  and  _488
REMARK  181  A    between atoms: _487  and  _490
REMARK  182  A    between atoms: _490  and  _491
REMARK  183  A    between atoms: _496  and  _497
REMARK  184  A    between atoms: _499  and  _501
REMARK  185  A    between atoms: _501  and  _502
REMARK  186  A    between atoms: _501  and  _504
REMARK  187  A    between atoms: _504  and  _505
REMARK  188  A    between atoms: _510  and  _511
REMARK  189  A    between atoms: _513  and  _515
REMARK  190  A    between atoms: _515  and  _516
REMARK  191  A    between atoms: _515  and  _518
REMARK  192  A    between atoms: _518  and  _519
REMARK  193  A    between atoms: _519  and  _520
REMARK  194  A    between atoms: _523  and  _525
REMARK  195  A    between atoms: _525  and  _526
REMARK  196  A    between atoms: _525  and  _528
REMARK  197  A    between atoms: _528  and  _529
REMARK  198  A    between atoms: _529  and  _530
REMARK  199  A    between atoms: _532  and  _534
REMARK  200  A    between atoms: _534  and  _535
REMARK  201  A    between atoms: _534  and  _537
REMARK  202  A    between atoms: _540  and  _542
REMARK  203  A    between atoms: _542  and  _543
REMARK  204  A    between atoms: _542  and  _545
REMARK  205  A    between atoms: _545  and  _546
REMARK  206  A    between atoms: _556  and  _558
REMARK  207  A    between atoms: _558  and  _559
REMARK  208  A    between atoms: _562  and  _564
REMARK  209  A    between atoms: _564  and  _565
REMARK  210  A    between atoms: _564  and  _567
REMARK  211  A    between atoms: _567  and  _568
REMARK  212  A    between atoms: _571  and  _573
REMARK  213  A    between atoms: _573  and  _574
REMARK  214  A    between atoms: _573  and  _576
REMARK  215  A    between atoms: _576  and  _577
REMARK                            x       y       z     vdW  Elec       q    Type
REMARK                         _______ _______ _______ _____ _____    ______ ____
ROOT
ATOM      1  O   HOH     1      -0.300   7.499 -15.770  0.00  0.00    +0.000 OA
ENDROOT
TORSDOF 0
REMARK  Name = ../refined-set-2016/3rm4/3rm4_pocket.pdb
REMARK  215 active torsions:
REMARK  status: ('A' for Active; 'I' for Inactive)
REMARK    1  A    between atoms: _1  and  _3
REMARK    2  A    between atoms: _3  and  _4
REMARK    3  A    between atoms: _3  and  _6
REMARK    4  A    between atoms: _6  and  _7
REMARK    5  A    between atoms: _12  and  _13
REMARK    6  A    between atoms: _15  and  _17
REMARK    7  A    between atoms: _17  and  _18
REMARK    8  A    between atoms: _17  and  _20
REMARK    9  A    between atoms: _20  and  _21
REMARK   10  A    between atoms: _24  and  _26
REMARK   11  A    between atoms: _26  and  _27
REMARK   12  A    between atoms: _26  and  _29
REMARK   13  A    between atoms: _29  and  _30
REMARK   14  A    between atoms: _40  and  _42
REMARK   15  A    between atoms: _42  and  _43
REMARK   16  A    between atoms: _42  and  _45
REMARK   17  A    between atoms: _45  and  _46
REMARK   18  A    between atoms: _46  and  _47
REMARK   19  A    between atoms: _47  and  _48
REMARK   20  A    between atoms: _57  and  _59
REMARK   21  A    between atoms: _59  and  _60
REMARK   22  A    between atoms: _59  and  _62
REMARK   23  A    between atoms: _62  and  _63
REMARK   24  A    between atoms: _66  and  _68
REMARK   25  A    between atoms: _68  and  _69
REMARK   26  A    between atoms: _72  and  _74
REMARK   27  A    between atoms: _74  and  _75
REMARK   28  A    between atoms: _74  and  _77
REMARK   29  A    between atoms: _77  and  _78
REMARK   30  A    between atoms: _84  and  _86
REMARK   31  A    between atoms: _86  and  _87
REMARK   32  A    between atoms: _90  and  _92
REMARK   33  A    between atoms: _92  and  _93
REMARK   34  A    between atoms: _92  and  _95
REMARK   35  A    between atoms: _95  and  _96
REMARK   36  A    between atoms: _99  and  _101
REMARK   37  A    between atoms: _101  and  _102
REMARK   38  A    between atoms: _104  and  _106
REMARK   39  A    between atoms: _106  and  _107
REMARK   40  A    between atoms: _109  and  _111
REMARK   41  A    between atoms: _111  and  _112
REMARK   42  A    between atoms: _111  and  _114
REMARK   43  A    between atoms: _114  and  _115
REMARK   44  A    between atoms: _125  and  _127
REMARK   45  A    between atoms: _127  and  _128
REMARK   46  A    between atoms: _127  and  _130
REMARK   47  A    between atoms: _130  and  _131
REMARK   48  A    between atoms: _136  and  _138
REMARK   49  A    between atoms: _138  and  _139
REMARK   50  A    between atoms: _138  and  _141
REMARK   51  A    between atoms: _141  and  _142
REMARK   52  A    between atoms: _145  and  _147
REMARK   53  A    between atoms: _147  and  _148
REMARK   54  A    between atoms: _147  and  _150
REMARK   55  A    between atoms: _150  and  _151
REMARK   56  A    between atoms: _157  and  _159
REMARK   57  A    between atoms: _159  and  _160
REMARK   58  A    between atoms: _159  and  _162
REMARK   59  A    between atoms: _162  and  _163
REMARK   60  A    between atoms: _166  and  _168
REMARK   61  A    between atoms: _168  and  _169
REMARK   62  A    between atoms: _168  and  _171
REMARK   63  A    between atoms: _171  and  _172
REMARK   64  A    between atoms: _182  and  _184
REMARK   65  A    between atoms: _184  and  _185
REMARK   66  A    between atoms: _184  and  _187
REMARK   67  A    between atoms: _187  and  _188
REMARK   68  A    between atoms: _188  and  _189
REMARK   69  A    between atoms: _192  and  _194
REMARK   70  A    between atoms: _194  and  _195
REMARK   71  A    between atoms: _194  and  _197
REMARK   72  A    between atoms: _197  and  _198
REMARK   73  A    between atoms: _203  and  _204
REMARK   74  A    between atoms: _206  and  _208
REMARK   75  A    between atoms: _208  and  _209
REMARK   76  A    between atoms: _208  and  _211
REMARK   77  A    between atoms: _211  and  _212
REMARK   78  A    between atoms: _212  and  _213
REMARK   79  A    between atoms: _213  and  _214
REMARK   80  A    between atoms: _223  and  _225
REMARK   81  A    between atoms: _225  and  _226
REMARK   82  A    between atoms: _229  and  _231
REMARK   83  A    between atoms: _231  and  _232
REMARK   84  A    between atoms: _235  and  _237
REMARK   85  A    between atoms: _237  and  _238
REMARK   86  A    between atoms: _237  and  _240
REMARK   87  A    between atoms: _243  and  _245
REMARK   88  A    between atoms: _245  and  _246
REMARK   89  A    between atoms: _245  and  _248
REMARK   90  A    between atoms: _248  and  _249
REMARK   91  A    between atoms: _254  and  _256
REMARK   92  A    between atoms: _256  and  _257
REMARK   93  A    between atoms: _256  and  _259
REMARK   94  A    between atoms: _262  and  _264
REMARK   95  A    between atoms: _264  and  _265
REMARK   96  A    between atoms: _264  and  _267
REMARK   97  A    between atoms: _267  and  _268
REMARK   98  A    between atoms: _268  and  _269
REMARK   99  A    between atoms: _271  and  _273
REMARK  100  A    between atoms: _273  and  _274
REMARK  101  A    between atoms: _273  and  _276
REMARK  102  A    between atoms: _276  and  _277
REMARK  103  A    between atoms: _280  and  _282
REMARK  104  A    between atoms: _282  and  _283
REMARK  105  A    between atoms: _282  and  _285
REMARK  106  A    between atoms: _285  and  _286
REMARK  107  A    between atoms: _291  and  _292
REMARK  108  A    between atoms: _294  and  _296
REMARK  109  A    between atoms: _296  and  _297
REMARK  110  A    between atoms: _296  and  _299
REMARK  111  A    between atoms: _299  and  _300
REMARK  112  A    between atoms: _303  and  _305
REMARK  113  A    between atoms: _305  and  _306
REMARK  114  A    between atoms: _305  and  _308
REMARK  115  A    between atoms: _308  and  _309
REMARK  116  A    between atoms: _319  and  _321
REMARK  117  A    between atoms: _321  and  _322
REMARK  118  A    between atoms: _321  and  _324
REMARK  119  A    between atoms: _324  and  _325
REMARK  120  A    between atoms: _330  and  _332
REMARK  121  A    between atoms: _332  and  _333
REMARK  122  A    between atoms: _335  and  _337
REMARK  123  A    between atoms: _337  and  _338
REMARK  124  A    between atoms: _337  and  _340
REMARK  125  A    between atoms: _340  and  _341
REMARK  126  A    between atoms: _348  and  _349
REMARK  127  A    between atoms: _354  and  _356
REMARK  128  A    between atoms: _356  and  _357
REMARK  129  A    between atoms: _356  and  _359
REMARK  130  A    between atoms: _359  and  _360
REMARK  131  A    between atoms: _363  and  _365
REMARK  132  A    between atoms: _365  and  _366
REMARK  133  A    between atoms: _365  and  _368
REMARK  134  A    between atoms: _368  and  _369
REMARK  135  A    between atoms: _374  and  _375
REMARK  136  A    between atoms: _377  and  _379
REMARK  137  A    between atoms: _379  and  _380
REMARK  138  A    between atoms: _382  and  _384
REMARK  139  A    between atoms: _384  and  _385
REMARK  140  A    between atoms: _384  and  _387
REMARK  141  A    between atoms: _387  and  _388
REMARK  142  A    between atoms: _393  and  _395
REMARK  143  A    between atoms: _395  and  _396
REMARK  144  A    between atoms: _398  and  _400
REMARK  145  A    between atoms: _400  and  _401
REMARK  146  A    between atoms: _400  and  _403
REMARK  147  A    between atoms: _403  and  _404
REMARK  148  A    between atoms: _409  and  _410
REMARK  149  A    between atoms: _412  and  _414
REMARK  150  A    between atoms: _414  and  _415
REMARK  151  A    between atoms: _418  and  _420
REMARK  152  A    between atoms: _420  and  _421
REMARK  153  A    between atoms: _420  and  _423
REMARK  154  A    between atoms: _423  and  _424
REMARK  155  A    between atoms: _424  and  _425
REMARK  156  A    between atoms: _425  and  _426
REMARK  157  A    between atoms: _426  and  _427
REMARK  158  A    between atoms: _431  and  _433
REMARK  159  A    between atoms: _433  and  _434
REMARK  160  A    between atoms: _433  and  _436
REMARK  161  A    between atoms: _436  and  _437
REMARK  162  A    between atoms: _437  and  _438
REMARK  163  A    between atoms: _441  and  _443
REMARK  164  A    between atoms: _443  and  _444
REMARK  165  A    between atoms: _443  and  _446
REMARK  166  A    between atoms: _446  and  _447
REMARK  167  A    between atoms: _449  and  _451
REMARK  168  A    between atoms: _451  and  _452
REMARK  169  A    between atoms: _454  and  _456
REMARK  170  A    between atoms: _456  and  _457
REMARK  171  A    between atoms: _456  and  _459
REMARK  172  A    between atoms: _459  and  _460
REMARK  173  A    between atoms: _463  and  _465
REMARK  174  A    between atoms: _465  and  _466
REMARK  175  A    between atoms: _465  and  _468
REMARK  176  A    between atoms: _468  and  _469
REMARK  177  A    between atoms: _479  and  _481
REMARK  178  A    between atoms: _481  and  _482
REMARK  179  A    between atoms: _485  and  _487
REMARK  180  A    between atoms: _487  and  _488
REMARK  181  A    between atoms: _487  and  _490
REMARK  182  A    between atoms: _490  and  _491
REMARK  183  A    between atoms: _496  and  _497
REMARK  184  A    between atoms: _499  and  _501
REMARK  185  A    between atoms: _501  and  _502
REMARK  186  A    between atoms: _501  and  _504
REMARK  187  A    between atoms: _504  and  _505
REMARK  188  A    between atoms: _510  and  _511
REMARK  189  A    between atoms: _513  and  _515
REMARK  190  A    between atoms: _515  and  _516
REMARK  191  A    between atoms: _515  and  _518
REMARK  192  A    between atoms: _518  and  _519
REMARK  193  A    between atoms: _519  and  _520
REMARK  194  A    between atoms: _523  and  _525
REMARK  195  A    between atoms: _525  and  _526
REMARK  196  A    between atoms: _525  and  _528
REMARK  197  A    between atoms: _528  and  _529
REMARK  198  A    between atoms: _529  and  _530
REMARK  199  A    between atoms: _532  and  _534
REMARK  200  A    between atoms: _534  and  _535
REMARK  201  A    between atoms: _534  and  _537
REMARK  202  A    between atoms: _540  and  _542
REMARK  203  A    between atoms: _542  and  _543
REMARK  204  A    between atoms: _542  and  _545
REMARK  205  A    between atoms: _545  and  _546
REMARK  206  A    between atoms: _556  and  _558
REMARK  207  A    between atoms: _558  and  _559
REMARK  208  A    between atoms: _562  and  _564
REMARK  209  A    between atoms: _564  and  _565
REMARK  210  A    between atoms: _564  and  _567
REMARK  211  A    between atoms: _567  and  _568
REMARK  212  A    between atoms: _571  and  _573
REMARK  213  A    between atoms: _573  and  _574
REMARK  214  A    between atoms: _573  and  _576
REMARK  215  A    between atoms: _576  and  _577
REMARK                            x       y       z     vdW  Elec       q    Type
REMARK                         _______ _______ _______ _____ _____    ______ ____
ROOT
ATOM      1  O   HOH     1       5.164  -5.006 -17.068  0.00  0.00    +0.000 OA
ENDROOT
TORSDOF 0
REMARK  Name = ../refined-set-2016/3rm4/3rm4_pocket.pdb
REMARK  215 active torsions:
REMARK  status: ('A' for Active; 'I' for Inactive)
REMARK    1  A    between atoms: _1  and  _3
REMARK    2  A    between atoms: _3  and  _4
REMARK    3  A    between atoms: _3  and  _6
REMARK    4  A    between atoms: _6  and  _7
REMARK    5  A    between atoms: _12  and  _13
REMARK    6  A    between atoms: _15  and  _17
REMARK    7  A    between atoms: _17  and  _18
REMARK    8  A    between atoms: _17  and  _20
REMARK    9  A    between atoms: _20  and  _21
REMARK   10  A    between atoms: _24  and  _26
REMARK   11  A    between atoms: _26  and  _27
REMARK   12  A    between atoms: _26  and  _29
REMARK   13  A    between atoms: _29  and  _30
REMARK   14  A    between atoms: _40  and  _42
REMARK   15  A    between atoms: _42  and  _43
REMARK   16  A    between atoms: _42  and  _45
REMARK   17  A    between atoms: _45  and  _46
REMARK   18  A    between atoms: _46  and  _47
REMARK   19  A    between atoms: _47  and  _48
REMARK   20  A    between atoms: _57  and  _59
REMARK   21  A    between atoms: _59  and  _60
REMARK   22  A    between atoms: _59  and  _62
REMARK   23  A    between atoms: _62  and  _63
REMARK   24  A    between atoms: _66  and  _68
REMARK   25  A    between atoms: _68  and  _69
REMARK   26  A    between atoms: _72  and  _74
REMARK   27  A    between atoms: _74  and  _75
REMARK   28  A    between atoms: _74  and  _77
REMARK   29  A    between atoms: _77  and  _78
REMARK   30  A    between atoms: _84  and  _86
REMARK   31  A    between atoms: _86  and  _87
REMARK   32  A    between atoms: _90  and  _92
REMARK   33  A    between atoms: _92  and  _93
REMARK   34  A    between atoms: _92  and  _95
REMARK   35  A    between atoms: _95  and  _96
REMARK   36  A    between atoms: _99  and  _101
REMARK   37  A    between atoms: _101  and  _102
REMARK   38  A    between atoms: _104  and  _106
REMARK   39  A    between atoms: _106  and  _107
REMARK   40  A    between atoms: _109  and  _111
REMARK   41  A    between atoms: _111  and  _112
REMARK   42  A    between atoms: _111  and  _114
REMARK   43  A    between atoms: _114  and  _115
REMARK   44  A    between atoms: _125  and  _127
REMARK   45  A    between atoms: _127  and  _128
REMARK   46  A    between atoms: _127  and  _130
REMARK   47  A    between atoms: _130  and  _131
REMARK   48  A    between atoms: _136  and  _138
REMARK   49  A    between atoms: _138  and  _139
REMARK   50  A    between atoms: _138  and  _141
REMARK   51  A    between atoms: _141  and  _142
REMARK   52  A    between atoms: _145  and  _147
REMARK   53  A    between atoms: _147  and  _148
REMARK   54  A    between atoms: _147  and  _150
REMARK   55  A    between atoms: _150  and  _151
REMARK   56  A    between atoms: _157  and  _159
REMARK   57  A    between atoms: _159  and  _160
REMARK   58  A    between atoms: _159  and  _162
REMARK   59  A    between atoms: _162  and  _163
REMARK   60  A    between atoms: _166  and  _168
REMARK   61  A    between atoms: _168  and  _169
REMARK   62  A    between atoms: _168  and  _171
REMARK   63  A    between atoms: _171  and  _172
REMARK   64  A    between atoms: _182  and  _184
REMARK   65  A    between atoms: _184  and  _185
REMARK   66  A    between atoms: _184  and  _187
REMARK   67  A    between atoms: _187  and  _188
REMARK   68  A    between atoms: _188  and  _189
REMARK   69  A    between atoms: _192  and  _194
REMARK   70  A    between atoms: _194  and  _195
REMARK   71  A    between atoms: _194  and  _197
REMARK   72  A    between atoms: _197  and  _198
REMARK   73  A    between atoms: _203  and  _204
REMARK   74  A    between atoms: _206  and  _208
REMARK   75  A    between atoms: _208  and  _209
REMARK   76  A    between atoms: _208  and  _211
REMARK   77  A    between atoms: _211  and  _212
REMARK   78  A    between atoms: _212  and  _213
REMARK   79  A    between atoms: _213  and  _214
REMARK   80  A    between atoms: _223  and  _225
REMARK   81  A    between atoms: _225  and  _226
REMARK   82  A    between atoms: _229  and  _231
REMARK   83  A    between atoms: _231  and  _232
REMARK   84  A    between atoms: _235  and  _237
REMARK   85  A    between atoms: _237  and  _238
REMARK   86  A    between atoms: _237  and  _240
REMARK   87  A    between atoms: _243  and  _245
REMARK   88  A    between atoms: _245  and  _246
REMARK   89  A    between atoms: _245  and  _248
REMARK   90  A    between atoms: _248  and  _249
REMARK   91  A    between atoms: _254  and  _256
REMARK   92  A    between atoms: _256  and  _257
REMARK   93  A    between atoms: _256  and  _259
REMARK   94  A    between atoms: _262  and  _264
REMARK   95  A    between atoms: _264  and  _265
REMARK   96  A    between atoms: _264  and  _267
REMARK   97  A    between atoms: _267  and  _268
REMARK   98  A    between atoms: _268  and  _269
REMARK   99  A    between atoms: _271  and  _273
REMARK  100  A    between atoms: _273  and  _274
REMARK  101  A    between atoms: _273  and  _276
REMARK  102  A    between atoms: _276  and  _277
REMARK  103  A    between atoms: _280  and  _282
REMARK  104  A    between atoms: _282  and  _283
REMARK  105  A    between atoms: _282  and  _285
REMARK  106  A    between atoms: _285  and  _286
REMARK  107  A    between atoms: _291  and  _292
REMARK  108  A    between atoms: _294  and  _296
REMARK  109  A    between atoms: _296  and  _297
REMARK  110  A    between atoms: _296  and  _299
REMARK  111  A    between atoms: _299  and  _300
REMARK  112  A    between atoms: _303  and  _305
REMARK  113  A    between atoms: _305  and  _306
REMARK  114  A    between atoms: _305  and  _308
REMARK  115  A    between atoms: _308  and  _309
REMARK  116  A    between atoms: _319  and  _321
REMARK  117  A    between atoms: _321  and  _322
REMARK  118  A    between atoms: _321  and  _324
REMARK  119  A    between atoms: _324  and  _325
REMARK  120  A    between atoms: _330  and  _332
REMARK  121  A    between atoms: _332  and  _333
REMARK  122  A    between atoms: _335  and  _337
REMARK  123  A    between atoms: _337  and  _338
REMARK  124  A    between atoms: _337  and  _340
REMARK  125  A    between atoms: _340  and  _341
REMARK  126  A    between atoms: _348  and  _349
REMARK  127  A    between atoms: _354  and  _356
REMARK  128  A    between atoms: _356  and  _357
REMARK  129  A    between atoms: _356  and  _359
REMARK  130  A    between atoms: _359  and  _360
REMARK  131  A    between atoms: _363  and  _365
REMARK  132  A    between atoms: _365  and  _366
REMARK  133  A    between atoms: _365  and  _368
REMARK  134  A    between atoms: _368  and  _369
REMARK  135  A    between atoms: _374  and  _375
REMARK  136  A    between atoms: _377  and  _379
REMARK  137  A    between atoms: _379  and  _380
REMARK  138  A    between atoms: _382  and  _384
REMARK  139  A    between atoms: _384  and  _385
REMARK  140  A    between atoms: _384  and  _387
REMARK  141  A    between atoms: _387  and  _388
REMARK  142  A    between atoms: _393  and  _395
REMARK  143  A    between atoms: _395  and  _396
REMARK  144  A    between atoms: _398  and  _400
REMARK  145  A    between atoms: _400  and  _401
REMARK  146  A    between atoms: _400  and  _403
REMARK  147  A    between atoms: _403  and  _404
REMARK  148  A    between atoms: _409  and  _410
REMARK  149  A    between atoms: _412  and  _414
REMARK  150  A    between atoms: _414  and  _415
REMARK  151  A    between atoms: _418  and  _420
REMARK  152  A    between atoms: _420  and  _421
REMARK  153  A    between atoms: _420  and  _423
REMARK  154  A    between atoms: _423  and  _424
REMARK  155  A    between atoms: _424  and  _425
REMARK  156  A    between atoms: _425  and  _426
REMARK  157  A    between atoms: _426  and  _427
REMARK  158  A    between atoms: _431  and  _433
REMARK  159  A    between atoms: _433  and  _434
REMARK  160  A    between atoms: _433  and  _436
REMARK  161  A    between atoms: _436  and  _437
REMARK  162  A    between atoms: _437  and  _438
REMARK  163  A    between atoms: _441  and  _443
REMARK  164  A    between atoms: _443  and  _444
REMARK  165  A    between atoms: _443  and  _446
REMARK  166  A    between atoms: _446  and  _447
REMARK  167  A    between atoms: _449  and  _451
REMARK  168  A    between atoms: _451  and  _452
REMARK  169  A    between atoms: _454  and  _456
REMARK  170  A    between atoms: _456  and  _457
REMARK  171  A    between atoms: _456  and  _459
REMARK  172  A    between atoms: _459  and  _460
REMARK  173  A    between atoms: _463  and  _465
REMARK  174  A    between atoms: _465  and  _466
REMARK  175  A    between atoms: _465  and  _468
REMARK  176  A    between atoms: _468  and  _469
REMARK  177  A    between atoms: _479  and  _481
REMARK  178  A    between atoms: _481  and  _482
REMARK  179  A    between atoms: _485  and  _487
REMARK  180  A    between atoms: _487  and  _488
REMARK  181  A    between atoms: _487  and  _490
REMARK  182  A    between atoms: _490  and  _491
REMARK  183  A    between atoms: _496  and  _497
REMARK  184  A    between atoms: _499  and  _501
REMARK  185  A    between atoms: _501  and  _502
REMARK  186  A    between atoms: _501  and  _504
REMARK  187  A    between atoms: _504  and  _505
REMARK  188  A    between atoms: _510  and  _511
REMARK  189  A    between atoms: _513  and  _515
REMARK  190  A    between atoms: _515  and  _516
REMARK  191  A    between atoms: _515  and  _518
REMARK  192  A    between atoms: _518  and  _519
REMARK  193  A    between atoms: _519  and  _520
REMARK  194  A    between atoms: _523  and  _525
REMARK  195  A    between atoms: _525  and  _526
REMARK  196  A    between atoms: _525  and  _528
REMARK  197  A    between atoms: _528  and  _529
REMARK  198  A    between atoms: _529  and  _530
REMARK  199  A    between atoms: _532  and  _534
REMARK  200  A    between atoms: _534  and  _535
REMARK  201  A    between atoms: _534  and  _537
REMARK  202  A    between atoms: _540  and  _542
REMARK  203  A    between atoms: _542  and  _543
REMARK  204  A    between atoms: _542  and  _545
REMARK  205  A    between atoms: _545  and  _546
REMARK  206  A    between atoms: _556  and  _558
REMARK  207  A    between atoms: _558  and  _559
REMARK  208  A    between atoms: _562  and  _564
REMARK  209  A    between atoms: _564  and  _565
REMARK  210  A    between atoms: _564  and  _567
REMARK  211  A    between atoms: _567  and  _568
REMARK  212  A    between atoms: _571  and  _573
REMARK  213  A    between atoms: _573  and  _574
REMARK  214  A    between atoms: _573  and  _576
REMARK  215  A    between atoms: _576  and  _577
REMARK                            x       y       z     vdW  Elec       q    Type
REMARK                         _______ _______ _______ _____ _____    ______ ____
ROOT
ATOM      1  O   HOH     1       1.573  -3.070 -18.874  0.00  0.00    +0.000 OA
ENDROOT
TORSDOF 0
REMARK  Name = ../refined-set-2016/3rm4/3rm4_pocket.pdb
REMARK  215 active torsions:
REMARK  status: ('A' for Active; 'I' for Inactive)
REMARK    1  A    between atoms: _1  and  _3
REMARK    2  A    between atoms: _3  and  _4
REMARK    3  A    between atoms: _3  and  _6
REMARK    4  A    between atoms: _6  and  _7
REMARK    5  A    between atoms: _12  and  _13
REMARK    6  A    between atoms: _15  and  _17
REMARK    7  A    between atoms: _17  and  _18
REMARK    8  A    between atoms: _17  and  _20
REMARK    9  A    between atoms: _20  and  _21
REMARK   10  A    between atoms: _24  and  _26
REMARK   11  A    between atoms: _26  and  _27
REMARK   12  A    between atoms: _26  and  _29
REMARK   13  A    between atoms: _29  and  _30
REMARK   14  A    between atoms: _40  and  _42
REMARK   15  A    between atoms: _42  and  _43
REMARK   16  A    between atoms: _42  and  _45
REMARK   17  A    between atoms: _45  and  _46
REMARK   18  A    between atoms: _46  and  _47
REMARK   19  A    between atoms: _47  and  _48
REMARK   20  A    between atoms: _57  and  _59
REMARK   21  A    between atoms: _59  and  _60
REMARK   22  A    between atoms: _59  and  _62
REMARK   23  A    between atoms: _62  and  _63
REMARK   24  A    between atoms: _66  and  _68
REMARK   25  A    between atoms: _68  and  _69
REMARK   26  A    between atoms: _72  and  _74
REMARK   27  A    between atoms: _74  and  _75
REMARK   28  A    between atoms: _74  and  _77
REMARK   29  A    between atoms: _77  and  _78
REMARK   30  A    between atoms: _84  and  _86
REMARK   31  A    between atoms: _86  and  _87
REMARK   32  A    between atoms: _90  and  _92
REMARK   33  A    between atoms: _92  and  _93
REMARK   34  A    between atoms: _92  and  _95
REMARK   35  A    between atoms: _95  and  _96
REMARK   36  A    between atoms: _99  and  _101
REMARK   37  A    between atoms: _101  and  _102
REMARK   38  A    between atoms: _104  and  _106
REMARK   39  A    between atoms: _106  and  _107
REMARK   40  A    between atoms: _109  and  _111
REMARK   41  A    between atoms: _111  and  _112
REMARK   42  A    between atoms: _111  and  _114
REMARK   43  A    between atoms: _114  and  _115
REMARK   44  A    between atoms: _125  and  _127
REMARK   45  A    between atoms: _127  and  _128
REMARK   46  A    between atoms: _127  and  _130
REMARK   47  A    between atoms: _130  and  _131
REMARK   48  A    between atoms: _136  and  _138
REMARK   49  A    between atoms: _138  and  _139
REMARK   50  A    between atoms: _138  and  _141
REMARK   51  A    between atoms: _141  and  _142
REMARK   52  A    between atoms: _145  and  _147
REMARK   53  A    between atoms: _147  and  _148
REMARK   54  A    between atoms: _147  and  _150
REMARK   55  A    between atoms: _150  and  _151
REMARK   56  A    between atoms: _157  and  _159
REMARK   57  A    between atoms: _159  and  _160
REMARK   58  A    between atoms: _159  and  _162
REMARK   59  A    between atoms: _162  and  _163
REMARK   60  A    between atoms: _166  and  _168
REMARK   61  A    between atoms: _168  and  _169
REMARK   62  A    between atoms: _168  and  _171
REMARK   63  A    between atoms: _171  and  _172
REMARK   64  A    between atoms: _182  and  _184
REMARK   65  A    between atoms: _184  and  _185
REMARK   66  A    between atoms: _184  and  _187
REMARK   67  A    between atoms: _187  and  _188
REMARK   68  A    between atoms: _188  and  _189
REMARK   69  A    between atoms: _192  and  _194
REMARK   70  A    between atoms: _194  and  _195
REMARK   71  A    between atoms: _194  and  _197
REMARK   72  A    between atoms: _197  and  _198
REMARK   73  A    between atoms: _203  and  _204
REMARK   74  A    between atoms: _206  and  _208
REMARK   75  A    between atoms: _208  and  _209
REMARK   76  A    between atoms: _208  and  _211
REMARK   77  A    between atoms: _211  and  _212
REMARK   78  A    between atoms: _212  and  _213
REMARK   79  A    between atoms: _213  and  _214
REMARK   80  A    between atoms: _223  and  _225
REMARK   81  A    between atoms: _225  and  _226
REMARK   82  A    between atoms: _229  and  _231
REMARK   83  A    between atoms: _231  and  _232
REMARK   84  A    between atoms: _235  and  _237
REMARK   85  A    between atoms: _237  and  _238
REMARK   86  A    between atoms: _237  and  _240
REMARK   87  A    between atoms: _243  and  _245
REMARK   88  A    between atoms: _245  and  _246
REMARK   89  A    between atoms: _245  and  _248
REMARK   90  A    between atoms: _248  and  _249
REMARK   91  A    between atoms: _254  and  _256
REMARK   92  A    between atoms: _256  and  _257
REMARK   93  A    between atoms: _256  and  _259
REMARK   94  A    between atoms: _262  and  _264
REMARK   95  A    between atoms: _264  and  _265
REMARK   96  A    between atoms: _264  and  _267
REMARK   97  A    between atoms: _267  and  _268
REMARK   98  A    between atoms: _268  and  _269
REMARK   99  A    between atoms: _271  and  _273
REMARK  100  A    between atoms: _273  and  _274
REMARK  101  A    between atoms: _273  and  _276
REMARK  102  A    between atoms: _276  and  _277
REMARK  103  A    between atoms: _280  and  _282
REMARK  104  A    between atoms: _282  and  _283
REMARK  105  A    between atoms: _282  and  _285
REMARK  106  A    between atoms: _285  and  _286
REMARK  107  A    between atoms: _291  and  _292
REMARK  108  A    between atoms: _294  and  _296
REMARK  109  A    between atoms: _296  and  _297
REMARK  110  A    between atoms: _296  and  _299
REMARK  111  A    between atoms: _299  and  _300
REMARK  112  A    between atoms: _303  and  _305
REMARK  113  A    between atoms: _305  and  _306
REMARK  114  A    between atoms: _305  and  _308
REMARK  115  A    between atoms: _308  and  _309
REMARK  116  A    between atoms: _319  and  _321
REMARK  117  A    between atoms: _321  and  _322
REMARK  118  A    between atoms: _321  and  _324
REMARK  119  A    between atoms: _324  and  _325
REMARK  120  A    between atoms: _330  and  _332
REMARK  121  A    between atoms: _332  and  _333
REMARK  122  A    between atoms: _335  and  _337
REMARK  123  A    between atoms: _337  and  _338
REMARK  124  A    between atoms: _337  and  _340
REMARK  125  A    between atoms: _340  and  _341
REMARK  126  A    between atoms: _348  and  _349
REMARK  127  A    between atoms: _354  and  _356
REMARK  128  A    between atoms: _356  and  _357
REMARK  129  A    between atoms: _356  and  _359
REMARK  130  A    between atoms: _359  and  _360
REMARK  131  A    between atoms: _363  and  _365
REMARK  132  A    between atoms: _365  and  _366
REMARK  133  A    between atoms: _365  and  _368
REMARK  134  A    between atoms: _368  and  _369
REMARK  135  A    between atoms: _374  and  _375
REMARK  136  A    between atoms: _377  and  _379
REMARK  137  A    between atoms: _379  and  _380
REMARK  138  A    between atoms: _382  and  _384
REMARK  139  A    between atoms: _384  and  _385
REMARK  140  A    between atoms: _384  and  _387
REMARK  141  A    between atoms: _387  and  _388
REMARK  142  A    between atoms: _393  and  _395
REMARK  143  A    between atoms: _395  and  _396
REMARK  144  A    between atoms: _398  and  _400
REMARK  145  A    between atoms: _400  and  _401
REMARK  146  A    between atoms: _400  and  _403
REMARK  147  A    between atoms: _403  and  _404
REMARK  148  A    between atoms: _409  and  _410
REMARK  149  A    between atoms: _412  and  _414
REMARK  150  A    between atoms: _414  and  _415
REMARK  151  A    between atoms: _418  and  _420
REMARK  152  A    between atoms: _420  and  _421
REMARK  153  A    between atoms: _420  and  _423
REMARK  154  A    between atoms: _423  and  _424
REMARK  155  A    between atoms: _424  and  _425
REMARK  156  A    between atoms: _425  and  _426
REMARK  157  A    between atoms: _426  and  _427
REMARK  158  A    between atoms: _431  and  _433
REMARK  159  A    between atoms: _433  and  _434
REMARK  160  A    between atoms: _433  and  _436
REMARK  161  A    between atoms: _436  and  _437
REMARK  162  A    between atoms: _437  and  _438
REMARK  163  A    between atoms: _441  and  _443
REMARK  164  A    between atoms: _443  and  _444
REMARK  165  A    between atoms: _443  and  _446
REMARK  166  A    between atoms: _446  and  _447
REMARK  167  A    between atoms: _449  and  _451
REMARK  168  A    between atoms: _451  and  _452
REMARK  169  A    between atoms: _454  and  _456
REMARK  170  A    between atoms: _456  and  _457
REMARK  171  A    between atoms: _456  and  _459
REMARK  172  A    between atoms: _459  and  _460
REMARK  173  A    between atoms: _463  and  _465
REMARK  174  A    between atoms: _465  and  _466
REMARK  175  A    between atoms: _465  and  _468
REMARK  176  A    between atoms: _468  and  _469
REMARK  177  A    between atoms: _479  and  _481
REMARK  178  A    between atoms: _481  and  _482
REMARK  179  A    between atoms: _485  and  _487
REMARK  180  A    between atoms: _487  and  _488
REMARK  181  A    between atoms: _487  and  _490
REMARK  182  A    between atoms: _490  and  _491
REMARK  183  A    between atoms: _496  and  _497
REMARK  184  A    between atoms: _499  and  _501
REMARK  185  A    between atoms: _501  and  _502
REMARK  186  A    between atoms: _501  and  _504
REMARK  187  A    between atoms: _504  and  _505
REMARK  188  A    between atoms: _510  and  _511
REMARK  189  A    between atoms: _513  and  _515
REMARK  190  A    between atoms: _515  and  _516
REMARK  191  A    between atoms: _515  and  _518
REMARK  192  A    between atoms: _518  and  _519
REMARK  193  A    between atoms: _519  and  _520
REMARK  194  A    between atoms: _523  and  _525
REMARK  195  A    between atoms: _525  and  _526
REMARK  196  A    between atoms: _525  and  _528
REMARK  197  A    between atoms: _528  and  _529
REMARK  198  A    between atoms: _529  and  _530
REMARK  199  A    between atoms: _532  and  _534
REMARK  200  A    between atoms: _534  and  _535
REMARK  201  A    between atoms: _534  and  _537
REMARK  202  A    between atoms: _540  and  _542
REMARK  203  A    between atoms: _542  and  _543
REMARK  204  A    between atoms: _542  and  _545
REMARK  205  A    between atoms: _545  and  _546
REMARK  206  A    between atoms: _556  and  _558
REMARK  207  A    between atoms: _558  and  _559
REMARK  208  A    between atoms: _562  and  _564
REMARK  209  A    between atoms: _564  and  _565
REMARK  210  A    between atoms: _564  and  _567
REMARK  211  A    between atoms: _567  and  _568
REMARK  212  A    between atoms: _571  and  _573
REMARK  213  A    between atoms: _573  and  _574
REMARK  214  A    between atoms: _573  and  _576
REMARK  215  A    between atoms: _576  and  _577
REMARK                            x       y       z     vdW  Elec       q    Type
REMARK                         _______ _______ _______ _____ _____    ______ ____
ROOT
ATOM      1  O   HOH     1       3.362  -5.147 -20.618  0.00  0.00    +0.000 OA
ENDROOT
TORSDOF 0
REMARK  Name = ../refined-set-2016/3rm4/3rm4_pocket.pdb
REMARK  215 active torsions:
REMARK  status: ('A' for Active; 'I' for Inactive)
REMARK    1  A    between atoms: _1  and  _3
REMARK    2  A    between atoms: _3  and  _4
REMARK    3  A    between atoms: _3  and  _6
REMARK    4  A    between atoms: _6  and  _7
REMARK    5  A    between atoms: _12  and  _13
REMARK    6  A    between atoms: _15  and  _17
REMARK    7  A    between atoms: _17  and  _18
REMARK    8  A    between atoms: _17  and  _20
REMARK    9  A    between atoms: _20  and  _21
REMARK   10  A    between atoms: _24  and  _26
REMARK   11  A    between atoms: _26  and  _27
REMARK   12  A    between atoms: _26  and  _29
REMARK   13  A    between atoms: _29  and  _30
REMARK   14  A    between atoms: _40  and  _42
REMARK   15  A    between atoms: _42  and  _43
REMARK   16  A    between atoms: _42  and  _45
REMARK   17  A    between atoms: _45  and  _46
REMARK   18  A    between atoms: _46  and  _47
REMARK   19  A    between atoms: _47  and  _48
REMARK   20  A    between atoms: _57  and  _59
REMARK   21  A    between atoms: _59  and  _60
REMARK   22  A    between atoms: _59  and  _62
REMARK   23  A    between atoms: _62  and  _63
REMARK   24  A    between atoms: _66  and  _68
REMARK   25  A    between atoms: _68  and  _69
REMARK   26  A    between atoms: _72  and  _74
REMARK   27  A    between atoms: _74  and  _75
REMARK   28  A    between atoms: _74  and  _77
REMARK   29  A    between atoms: _77  and  _78
REMARK   30  A    between atoms: _84  and  _86
REMARK   31  A    between atoms: _86  and  _87
REMARK   32  A    between atoms: _90  and  _92
REMARK   33  A    between atoms: _92  and  _93
REMARK   34  A    between atoms: _92  and  _95
REMARK   35  A    between atoms: _95  and  _96
REMARK   36  A    between atoms: _99  and  _101
REMARK   37  A    between atoms: _101  and  _102
REMARK   38  A    between atoms: _104  and  _106
REMARK   39  A    between atoms: _106  and  _107
REMARK   40  A    between atoms: _109  and  _111
REMARK   41  A    between atoms: _111  and  _112
REMARK   42  A    between atoms: _111  and  _114
REMARK   43  A    between atoms: _114  and  _115
REMARK   44  A    between atoms: _125  and  _127
REMARK   45  A    between atoms: _127  and  _128
REMARK   46  A    between atoms: _127  and  _130
REMARK   47  A    between atoms: _130  and  _131
REMARK   48  A    between atoms: _136  and  _138
REMARK   49  A    between atoms: _138  and  _139
REMARK   50  A    between atoms: _138  and  _141
REMARK   51  A    between atoms: _141  and  _142
REMARK   52  A    between atoms: _145  and  _147
REMARK   53  A    between atoms: _147  and  _148
REMARK   54  A    between atoms: _147  and  _150
REMARK   55  A    between atoms: _150  and  _151
REMARK   56  A    between atoms: _157  and  _159
REMARK   57  A    between atoms: _159  and  _160
REMARK   58  A    between atoms: _159  and  _162
REMARK   59  A    between atoms: _162  and  _163
REMARK   60  A    between atoms: _166  and  _168
REMARK   61  A    between atoms: _168  and  _169
REMARK   62  A    between atoms: _168  and  _171
REMARK   63  A    between atoms: _171  and  _172
REMARK   64  A    between atoms: _182  and  _184
REMARK   65  A    between atoms: _184  and  _185
REMARK   66  A    between atoms: _184  and  _187
REMARK   67  A    between atoms: _187  and  _188
REMARK   68  A    between atoms: _188  and  _189
REMARK   69  A    between atoms: _192  and  _194
REMARK   70  A    between atoms: _194  and  _195
REMARK   71  A    between atoms: _194  and  _197
REMARK   72  A    between atoms: _197  and  _198
REMARK   73  A    between atoms: _203  and  _204
REMARK   74  A    between atoms: _206  and  _208
REMARK   75  A    between atoms: _208  and  _209
REMARK   76  A    between atoms: _208  and  _211
REMARK   77  A    between atoms: _211  and  _212
REMARK   78  A    between atoms: _212  and  _213
REMARK   79  A    between atoms: _213  and  _214
REMARK   80  A    between atoms: _223  and  _225
REMARK   81  A    between atoms: _225  and  _226
REMARK   82  A    between atoms: _229  and  _231
REMARK   83  A    between atoms: _231  and  _232
REMARK   84  A    between atoms: _235  and  _237
REMARK   85  A    between atoms: _237  and  _238
REMARK   86  A    between atoms: _237  and  _240
REMARK   87  A    between atoms: _243  and  _245
REMARK   88  A    between atoms: _245  and  _246
REMARK   89  A    between atoms: _245  and  _248
REMARK   90  A    between atoms: _248  and  _249
REMARK   91  A    between atoms: _254  and  _256
REMARK   92  A    between atoms: _256  and  _257
REMARK   93  A    between atoms: _256  and  _259
REMARK   94  A    between atoms: _262  and  _264
REMARK   95  A    between atoms: _264  and  _265
REMARK   96  A    between atoms: _264  and  _267
REMARK   97  A    between atoms: _267  and  _268
REMARK   98  A    between atoms: _268  and  _269
REMARK   99  A    between atoms: _271  and  _273
REMARK  100  A    between atoms: _273  and  _274
REMARK  101  A    between atoms: _273  and  _276
REMARK  102  A    between atoms: _276  and  _277
REMARK  103  A    between atoms: _280  and  _282
REMARK  104  A    between atoms: _282  and  _283
REMARK  105  A    between atoms: _282  and  _285
REMARK  106  A    between atoms: _285  and  _286
REMARK  107  A    between atoms: _291  and  _292
REMARK  108  A    between atoms: _294  and  _296
REMARK  109  A    between atoms: _296  and  _297
REMARK  110  A    between atoms: _296  and  _299
REMARK  111  A    between atoms: _299  and  _300
REMARK  112  A    between atoms: _303  and  _305
REMARK  113  A    between atoms: _305  and  _306
REMARK  114  A    between atoms: _305  and  _308
REMARK  115  A    between atoms: _308  and  _309
REMARK  116  A    between atoms: _319  and  _321
REMARK  117  A    between atoms: _321  and  _322
REMARK  118  A    between atoms: _321  and  _324
REMARK  119  A    between atoms: _324  and  _325
REMARK  120  A    between atoms: _330  and  _332
REMARK  121  A    between atoms: _332  and  _333
REMARK  122  A    between atoms: _335  and  _337
REMARK  123  A    between atoms: _337  and  _338
REMARK  124  A    between atoms: _337  and  _340
REMARK  125  A    between atoms: _340  and  _341
REMARK  126  A    between atoms: _348  and  _349
REMARK  127  A    between atoms: _354  and  _356
REMARK  128  A    between atoms: _356  and  _357
REMARK  129  A    between atoms: _356  and  _359
REMARK  130  A    between atoms: _359  and  _360
REMARK  131  A    between atoms: _363  and  _365
REMARK  132  A    between atoms: _365  and  _366
REMARK  133  A    between atoms: _365  and  _368
REMARK  134  A    between atoms: _368  and  _369
REMARK  135  A    between atoms: _374  and  _375
REMARK  136  A    between atoms: _377  and  _379
REMARK  137  A    between atoms: _379  and  _380
REMARK  138  A    between atoms: _382  and  _384
REMARK  139  A    between atoms: _384  and  _385
REMARK  140  A    between atoms: _384  and  _387
REMARK  141  A    between atoms: _387  and  _388
REMARK  142  A    between atoms: _393  and  _395
REMARK  143  A    between atoms: _395  and  _396
REMARK  144  A    between atoms: _398  and  _400
REMARK  145  A    between atoms: _400  and  _401
REMARK  146  A    between atoms: _400  and  _403
REMARK  147  A    between atoms: _403  and  _404
REMARK  148  A    between atoms: _409  and  _410
REMARK  149  A    between atoms: _412  and  _414
REMARK  150  A    between atoms: _414  and  _415
REMARK  151  A    between atoms: _418  and  _420
REMARK  152  A    between atoms: _420  and  _421
REMARK  153  A    between atoms: _420  and  _423
REMARK  154  A    between atoms: _423  and  _424
REMARK  155  A    between atoms: _424  and  _425
REMARK  156  A    between atoms: _425  and  _426
REMARK  157  A    between atoms: _426  and  _427
REMARK  158  A    between atoms: _431  and  _433
REMARK  159  A    between atoms: _433  and  _434
REMARK  160  A    between atoms: _433  and  _436
REMARK  161  A    between atoms: _436  and  _437
REMARK  162  A    between atoms: _437  and  _438
REMARK  163  A    between atoms: _441  and  _443
REMARK  164  A    between atoms: _443  and  _444
REMARK  165  A    between atoms: _443  and  _446
REMARK  166  A    between atoms: _446  and  _447
REMARK  167  A    between atoms: _449  and  _451
REMARK  168  A    between atoms: _451  and  _452
REMARK  169  A    between atoms: _454  and  _456
REMARK  170  A    between atoms: _456  and  _457
REMARK  171  A    between atoms: _456  and  _459
REMARK  172  A    between atoms: _459  and  _460
REMARK  173  A    between atoms: _463  and  _465
REMARK  174  A    between atoms: _465  and  _466
REMARK  175  A    between atoms: _465  and  _468
REMARK  176  A    between atoms: _468  and  _469
REMARK  177  A    between atoms: _479  and  _481
REMARK  178  A    between atoms: _481  and  _482
REMARK  179  A    between atoms: _485  and  _487
REMARK  180  A    between atoms: _487  and  _488
REMARK  181  A    between atoms: _487  and  _490
REMARK  182  A    between atoms: _490  and  _491
REMARK  183  A    between atoms: _496  and  _497
REMARK  184  A    between atoms: _499  and  _501
REMARK  185  A    between atoms: _501  and  _502
REMARK  186  A    between atoms: _501  and  _504
REMARK  187  A    between atoms: _504  and  _505
REMARK  188  A    between atoms: _510  and  _511
REMARK  189  A    between atoms: _513  and  _515
REMARK  190  A    between atoms: _515  and  _516
REMARK  191  A    between atoms: _515  and  _518
REMARK  192  A    between atoms: _518  and  _519
REMARK  193  A    between atoms: _519  and  _520
REMARK  194  A    between atoms: _523  and  _525
REMARK  195  A    between atoms: _525  and  _526
REMARK  196  A    between atoms: _525  and  _528
REMARK  197  A    between atoms: _528  and  _529
REMARK  198  A    between atoms: _529  and  _530
REMARK  199  A    between atoms: _532  and  _534
REMARK  200  A    between atoms: _534  and  _535
REMARK  201  A    between atoms: _534  and  _537
REMARK  202  A    between atoms: _540  and  _542
REMARK  203  A    between atoms: _542  and  _543
REMARK  204  A    between atoms: _542  and  _545
REMARK  205  A    between atoms: _545  and  _546
REMARK  206  A    between atoms: _556  and  _558
REMARK  207  A    between atoms: _558  and  _559
REMARK  208  A    between atoms: _562  and  _564
REMARK  209  A    between atoms: _564  and  _565
REMARK  210  A    between atoms: _564  and  _567
REMARK  211  A    between atoms: _567  and  _568
REMARK  212  A    between atoms: _571  and  _573
REMARK  213  A    between atoms: _573  and  _574
REMARK  214  A    between atoms: _573  and  _576
REMARK  215  A    between atoms: _576  and  _577
REMARK                            x       y       z     vdW  Elec       q    Type
REMARK                         _______ _______ _______ _____ _____    ______ ____
ROOT
ATOM      1  O   HOH     1      -1.604   1.603 -13.626  0.00  0.00    +0.000 OA
ENDROOT
TORSDOF 0
REMARK  Name = ../refined-set-2016/3rm4/3rm4_pocket.pdb
REMARK  215 active torsions:
REMARK  status: ('A' for Active; 'I' for Inactive)
REMARK    1  A    between atoms: _1  and  _3
REMARK    2  A    between atoms: _3  and  _4
REMARK    3  A    between atoms: _3  and  _6
REMARK    4  A    between atoms: _6  and  _7
REMARK    5  A    between atoms: _12  and  _13
REMARK    6  A    between atoms: _15  and  _17
REMARK    7  A    between atoms: _17  and  _18
REMARK    8  A    between atoms: _17  and  _20
REMARK    9  A    between atoms: _20  and  _21
REMARK   10  A    between atoms: _24  and  _26
REMARK   11  A    between atoms: _26  and  _27
REMARK   12  A    between atoms: _26  and  _29
REMARK   13  A    between atoms: _29  and  _30
REMARK   14  A    between atoms: _40  and  _42
REMARK   15  A    between atoms: _42  and  _43
REMARK   16  A    between atoms: _42  and  _45
REMARK   17  A    between atoms: _45  and  _46
REMARK   18  A    between atoms: _46  and  _47
REMARK   19  A    between atoms: _47  and  _48
REMARK   20  A    between atoms: _57  and  _59
REMARK   21  A    between atoms: _59  and  _60
REMARK   22  A    between atoms: _59  and  _62
REMARK   23  A    between atoms: _62  and  _63
REMARK   24  A    between atoms: _66  and  _68
REMARK   25  A    between atoms: _68  and  _69
REMARK   26  A    between atoms: _72  and  _74
REMARK   27  A    between atoms: _74  and  _75
REMARK   28  A    between atoms: _74  and  _77
REMARK   29  A    between atoms: _77  and  _78
REMARK   30  A    between atoms: _84  and  _86
REMARK   31  A    between atoms: _86  and  _87
REMARK   32  A    between atoms: _90  and  _92
REMARK   33  A    between atoms: _92  and  _93
REMARK   34  A    between atoms: _92  and  _95
REMARK   35  A    between atoms: _95  and  _96
REMARK   36  A    between atoms: _99  and  _101
REMARK   37  A    between atoms: _101  and  _102
REMARK   38  A    between atoms: _104  and  _106
REMARK   39  A    between atoms: _106  and  _107
REMARK   40  A    between atoms: _109  and  _111
REMARK   41  A    between atoms: _111  and  _112
REMARK   42  A    between atoms: _111  and  _114
REMARK   43  A    between atoms: _114  and  _115
REMARK   44  A    between atoms: _125  and  _127
REMARK   45  A    between atoms: _127  and  _128
REMARK   46  A    between atoms: _127  and  _130
REMARK   47  A    between atoms: _130  and  _131
REMARK   48  A    between atoms: _136  and  _138
REMARK   49  A    between atoms: _138  and  _139
REMARK   50  A    between atoms: _138  and  _141
REMARK   51  A    between atoms: _141  and  _142
REMARK   52  A    between atoms: _145  and  _147
REMARK   53  A    between atoms: _147  and  _148
REMARK   54  A    between atoms: _147  and  _150
REMARK   55  A    between atoms: _150  and  _151
REMARK   56  A    between atoms: _157  and  _159
REMARK   57  A    between atoms: _159  and  _160
REMARK   58  A    between atoms: _159  and  _162
REMARK   59  A    between atoms: _162  and  _163
REMARK   60  A    between atoms: _166  and  _168
REMARK   61  A    between atoms: _168  and  _169
REMARK   62  A    between atoms: _168  and  _171
REMARK   63  A    between atoms: _171  and  _172
REMARK   64  A    between atoms: _182  and  _184
REMARK   65  A    between atoms: _184  and  _185
REMARK   66  A    between atoms: _184  and  _187
REMARK   67  A    between atoms: _187  and  _188
REMARK   68  A    between atoms: _188  and  _189
REMARK   69  A    between atoms: _192  and  _194
REMARK   70  A    between atoms: _194  and  _195
REMARK   71  A    between atoms: _194  and  _197
REMARK   72  A    between atoms: _197  and  _198
REMARK   73  A    between atoms: _203  and  _204
REMARK   74  A    between atoms: _206  and  _208
REMARK   75  A    between atoms: _208  and  _209
REMARK   76  A    between atoms: _208  and  _211
REMARK   77  A    between atoms: _211  and  _212
REMARK   78  A    between atoms: _212  and  _213
REMARK   79  A    between atoms: _213  and  _214
REMARK   80  A    between atoms: _223  and  _225
REMARK   81  A    between atoms: _225  and  _226
REMARK   82  A    between atoms: _229  and  _231
REMARK   83  A    between atoms: _231  and  _232
REMARK   84  A    between atoms: _235  and  _237
REMARK   85  A    between atoms: _237  and  _238
REMARK   86  A    between atoms: _237  and  _240
REMARK   87  A    between atoms: _243  and  _245
REMARK   88  A    between atoms: _245  and  _246
REMARK   89  A    between atoms: _245  and  _248
REMARK   90  A    between atoms: _248  and  _249
REMARK   91  A    between atoms: _254  and  _256
REMARK   92  A    between atoms: _256  and  _257
REMARK   93  A    between atoms: _256  and  _259
REMARK   94  A    between atoms: _262  and  _264
REMARK   95  A    between atoms: _264  and  _265
REMARK   96  A    between atoms: _264  and  _267
REMARK   97  A    between atoms: _267  and  _268
REMARK   98  A    between atoms: _268  and  _269
REMARK   99  A    between atoms: _271  and  _273
REMARK  100  A    between atoms: _273  and  _274
REMARK  101  A    between atoms: _273  and  _276
REMARK  102  A    between atoms: _276  and  _277
REMARK  103  A    between atoms: _280  and  _282
REMARK  104  A    between atoms: _282  and  _283
REMARK  105  A    between atoms: _282  and  _285
REMARK  106  A    between atoms: _285  and  _286
REMARK  107  A    between atoms: _291  and  _292
REMARK  108  A    between atoms: _294  and  _296
REMARK  109  A    between atoms: _296  and  _297
REMARK  110  A    between atoms: _296  and  _299
REMARK  111  A    between atoms: _299  and  _300
REMARK  112  A    between atoms: _303  and  _305
REMARK  113  A    between atoms: _305  and  _306
REMARK  114  A    between atoms: _305  and  _308
REMARK  115  A    between atoms: _308  and  _309
REMARK  116  A    between atoms: _319  and  _321
REMARK  117  A    between atoms: _321  and  _322
REMARK  118  A    between atoms: _321  and  _324
REMARK  119  A    between atoms: _324  and  _325
REMARK  120  A    between atoms: _330  and  _332
REMARK  121  A    between atoms: _332  and  _333
REMARK  122  A    between atoms: _335  and  _337
REMARK  123  A    between atoms: _337  and  _338
REMARK  124  A    between atoms: _337  and  _340
REMARK  125  A    between atoms: _340  and  _341
REMARK  126  A    between atoms: _348  and  _349
REMARK  127  A    between atoms: _354  and  _356
REMARK  128  A    between atoms: _356  and  _357
REMARK  129  A    between atoms: _356  and  _359
REMARK  130  A    between atoms: _359  and  _360
REMARK  131  A    between atoms: _363  and  _365
REMARK  132  A    between atoms: _365  and  _366
REMARK  133  A    between atoms: _365  and  _368
REMARK  134  A    between atoms: _368  and  _369
REMARK  135  A    between atoms: _374  and  _375
REMARK  136  A    between atoms: _377  and  _379
REMARK  137  A    between atoms: _379  and  _380
REMARK  138  A    between atoms: _382  and  _384
REMARK  139  A    between atoms: _384  and  _385
REMARK  140  A    between atoms: _384  and  _387
REMARK  141  A    between atoms: _387  and  _388
REMARK  142  A    between atoms: _393  and  _395
REMARK  143  A    between atoms: _395  and  _396
REMARK  144  A    between atoms: _398  and  _400
REMARK  145  A    between atoms: _400  and  _401
REMARK  146  A    between atoms: _400  and  _403
REMARK  147  A    between atoms: _403  and  _404
REMARK  148  A    between atoms: _409  and  _410
REMARK  149  A    between atoms: _412  and  _414
REMARK  150  A    between atoms: _414  and  _415
REMARK  151  A    between atoms: _418  and  _420
REMARK  152  A    between atoms: _420  and  _421
REMARK  153  A    between atoms: _420  and  _423
REMARK  154  A    between atoms: _423  and  _424
REMARK  155  A    between atoms: _424  and  _425
REMARK  156  A    between atoms: _425  and  _426
REMARK  157  A    between atoms: _426  and  _427
REMARK  158  A    between atoms: _431  and  _433
REMARK  159  A    between atoms: _433  and  _434
REMARK  160  A    between atoms: _433  and  _436
REMARK  161  A    between atoms: _436  and  _437
REMARK  162  A    between atoms: _437  and  _438
REMARK  163  A    between atoms: _441  and  _443
REMARK  164  A    between atoms: _443  and  _444
REMARK  165  A    between atoms: _443  and  _446
REMARK  166  A    between atoms: _446  and  _447
REMARK  167  A    between atoms: _449  and  _451
REMARK  168  A    between atoms: _451  and  _452
REMARK  169  A    between atoms: _454  and  _456
REMARK  170  A    between atoms: _456  and  _457
REMARK  171  A    between atoms: _456  and  _459
REMARK  172  A    between atoms: _459  and  _460
REMARK  173  A    between atoms: _463  and  _465
REMARK  174  A    between atoms: _465  and  _466
REMARK  175  A    between atoms: _465  and  _468
REMARK  176  A    between atoms: _468  and  _469
REMARK  177  A    between atoms: _479  and  _481
REMARK  178  A    between atoms: _481  and  _482
REMARK  179  A    between atoms: _485  and  _487
REMARK  180  A    between atoms: _487  and  _488
REMARK  181  A    between atoms: _487  and  _490
REMARK  182  A    between atoms: _490  and  _491
REMARK  183  A    between atoms: _496  and  _497
REMARK  184  A    between atoms: _499  and  _501
REMARK  185  A    between atoms: _501  and  _502
REMARK  186  A    between atoms: _501  and  _504
REMARK  187  A    between atoms: _504  and  _505
REMARK  188  A    between atoms: _510  and  _511
REMARK  189  A    between atoms: _513  and  _515
REMARK  190  A    between atoms: _515  and  _516
REMARK  191  A    between atoms: _515  and  _518
REMARK  192  A    between atoms: _518  and  _519
REMARK  193  A    between atoms: _519  and  _520
REMARK  194  A    between atoms: _523  and  _525
REMARK  195  A    between atoms: _525  and  _526
REMARK  196  A    between atoms: _525  and  _528
REMARK  197  A    between atoms: _528  and  _529
REMARK  198  A    between atoms: _529  and  _530
REMARK  199  A    between atoms: _532  and  _534
REMARK  200  A    between atoms: _534  and  _535
REMARK  201  A    between atoms: _534  and  _537
REMARK  202  A    between atoms: _540  and  _542
REMARK  203  A    between atoms: _542  and  _543
REMARK  204  A    between atoms: _542  and  _545
REMARK  205  A    between atoms: _545  and  _546
REMARK  206  A    between atoms: _556  and  _558
REMARK  207  A    between atoms: _558  and  _559
REMARK  208  A    between atoms: _562  and  _564
REMARK  209  A    between atoms: _564  and  _565
REMARK  210  A    between atoms: _564  and  _567
REMARK  211  A    between atoms: _567  and  _568
REMARK  212  A    between atoms: _571  and  _573
REMARK  213  A    between atoms: _573  and  _574
REMARK  214  A    between atoms: _573  and  _576
REMARK  215  A    between atoms: _576  and  _577
REMARK                            x       y       z     vdW  Elec       q    Type
REMARK                         _______ _______ _______ _____ _____    ______ ____
ROOT
ATOM      1  O   HOH     1      -3.767   0.388 -10.045  0.00  0.00    +0.000 OA
ENDROOT
TORSDOF 0
REMARK  Name = ../refined-set-2016/3rm4/3rm4_pocket.pdb
REMARK  215 active torsions:
REMARK  status: ('A' for Active; 'I' for Inactive)
REMARK    1  A    between atoms: _1  and  _3
REMARK    2  A    between atoms: _3  and  _4
REMARK    3  A    between atoms: _3  and  _6
REMARK    4  A    between atoms: _6  and  _7
REMARK    5  A    between atoms: _12  and  _13
REMARK    6  A    between atoms: _15  and  _17
REMARK    7  A    between atoms: _17  and  _18
REMARK    8  A    between atoms: _17  and  _20
REMARK    9  A    between atoms: _20  and  _21
REMARK   10  A    between atoms: _24  and  _26
REMARK   11  A    between atoms: _26  and  _27
REMARK   12  A    between atoms: _26  and  _29
REMARK   13  A    between atoms: _29  and  _30
REMARK   14  A    between atoms: _40  and  _42
REMARK   15  A    between atoms: _42  and  _43
REMARK   16  A    between atoms: _42  and  _45
REMARK   17  A    between atoms: _45  and  _46
REMARK   18  A    between atoms: _46  and  _47
REMARK   19  A    between atoms: _47  and  _48
REMARK   20  A    between atoms: _57  and  _59
REMARK   21  A    between atoms: _59  and  _60
REMARK   22  A    between atoms: _59  and  _62
REMARK   23  A    between atoms: _62  and  _63
REMARK   24  A    between atoms: _66  and  _68
REMARK   25  A    between atoms: _68  and  _69
REMARK   26  A    between atoms: _72  and  _74
REMARK   27  A    between atoms: _74  and  _75
REMARK   28  A    between atoms: _74  and  _77
REMARK   29  A    between atoms: _77  and  _78
REMARK   30  A    between atoms: _84  and  _86
REMARK   31  A    between atoms: _86  and  _87
REMARK   32  A    between atoms: _90  and  _92
REMARK   33  A    between atoms: _92  and  _93
REMARK   34  A    between atoms: _92  and  _95
REMARK   35  A    between atoms: _95  and  _96
REMARK   36  A    between atoms: _99  and  _101
REMARK   37  A    between atoms: _101  and  _102
REMARK   38  A    between atoms: _104  and  _106
REMARK   39  A    between atoms: _106  and  _107
REMARK   40  A    between atoms: _109  and  _111
REMARK   41  A    between atoms: _111  and  _112
REMARK   42  A    between atoms: _111  and  _114
REMARK   43  A    between atoms: _114  and  _115
REMARK   44  A    between atoms: _125  and  _127
REMARK   45  A    between atoms: _127  and  _128
REMARK   46  A    between atoms: _127  and  _130
REMARK   47  A    between atoms: _130  and  _131
REMARK   48  A    between atoms: _136  and  _138
REMARK   49  A    between atoms: _138  and  _139
REMARK   50  A    between atoms: _138  and  _141
REMARK   51  A    between atoms: _141  and  _142
REMARK   52  A    between atoms: _145  and  _147
REMARK   53  A    between atoms: _147  and  _148
REMARK   54  A    between atoms: _147  and  _150
REMARK   55  A    between atoms: _150  and  _151
REMARK   56  A    between atoms: _157  and  _159
REMARK   57  A    between atoms: _159  and  _160
REMARK   58  A    between atoms: _159  and  _162
REMARK   59  A    between atoms: _162  and  _163
REMARK   60  A    between atoms: _166  and  _168
REMARK   61  A    between atoms: _168  and  _169
REMARK   62  A    between atoms: _168  and  _171
REMARK   63  A    between atoms: _171  and  _172
REMARK   64  A    between atoms: _182  and  _184
REMARK   65  A    between atoms: _184  and  _185
REMARK   66  A    between atoms: _184  and  _187
REMARK   67  A    between atoms: _187  and  _188
REMARK   68  A    between atoms: _188  and  _189
REMARK   69  A    between atoms: _192  and  _194
REMARK   70  A    between atoms: _194  and  _195
REMARK   71  A    between atoms: _194  and  _197
REMARK   72  A    between atoms: _197  and  _198
REMARK   73  A    between atoms: _203  and  _204
REMARK   74  A    between atoms: _206  and  _208
REMARK   75  A    between atoms: _208  and  _209
REMARK   76  A    between atoms: _208  and  _211
REMARK   77  A    between atoms: _211  and  _212
REMARK   78  A    between atoms: _212  and  _213
REMARK   79  A    between atoms: _213  and  _214
REMARK   80  A    between atoms: _223  and  _225
REMARK   81  A    between atoms: _225  and  _226
REMARK   82  A    between atoms: _229  and  _231
REMARK   83  A    between atoms: _231  and  _232
REMARK   84  A    between atoms: _235  and  _237
REMARK   85  A    between atoms: _237  and  _238
REMARK   86  A    between atoms: _237  and  _240
REMARK   87  A    between atoms: _243  and  _245
REMARK   88  A    between atoms: _245  and  _246
REMARK   89  A    between atoms: _245  and  _248
REMARK   90  A    between atoms: _248  and  _249
REMARK   91  A    between atoms: _254  and  _256
REMARK   92  A    between atoms: _256  and  _257
REMARK   93  A    between atoms: _256  and  _259
REMARK   94  A    between atoms: _262  and  _264
REMARK   95  A    between atoms: _264  and  _265
REMARK   96  A    between atoms: _264  and  _267
REMARK   97  A    between atoms: _267  and  _268
REMARK   98  A    between atoms: _268  and  _269
REMARK   99  A    between atoms: _271  and  _273
REMARK  100  A    between atoms: _273  and  _274
REMARK  101  A    between atoms: _273  and  _276
REMARK  102  A    between atoms: _276  and  _277
REMARK  103  A    between atoms: _280  and  _282
REMARK  104  A    between atoms: _282  and  _283
REMARK  105  A    between atoms: _282  and  _285
REMARK  106  A    between atoms: _285  and  _286
REMARK  107  A    between atoms: _291  and  _292
REMARK  108  A    between atoms: _294  and  _296
REMARK  109  A    between atoms: _296  and  _297
REMARK  110  A    between atoms: _296  and  _299
REMARK  111  A    between atoms: _299  and  _300
REMARK  112  A    between atoms: _303  and  _305
REMARK  113  A    between atoms: _305  and  _306
REMARK  114  A    between atoms: _305  and  _308
REMARK  115  A    between atoms: _308  and  _309
REMARK  116  A    between atoms: _319  and  _321
REMARK  117  A    between atoms: _321  and  _322
REMARK  118  A    between atoms: _321  and  _324
REMARK  119  A    between atoms: _324  and  _325
REMARK  120  A    between atoms: _330  and  _332
REMARK  121  A    between atoms: _332  and  _333
REMARK  122  A    between atoms: _335  and  _337
REMARK  123  A    between atoms: _337  and  _338
REMARK  124  A    between atoms: _337  and  _340
REMARK  125  A    between atoms: _340  and  _341
REMARK  126  A    between atoms: _348  and  _349
REMARK  127  A    between atoms: _354  and  _356
REMARK  128  A    between atoms: _356  and  _357
REMARK  129  A    between atoms: _356  and  _359
REMARK  130  A    between atoms: _359  and  _360
REMARK  131  A    between atoms: _363  and  _365
REMARK  132  A    between atoms: _365  and  _366
REMARK  133  A    between atoms: _365  and  _368
REMARK  134  A    between atoms: _368  and  _369
REMARK  135  A    between atoms: _374  and  _375
REMARK  136  A    between atoms: _377  and  _379
REMARK  137  A    between atoms: _379  and  _380
REMARK  138  A    between atoms: _382  and  _384
REMARK  139  A    between atoms: _384  and  _385
REMARK  140  A    between atoms: _384  and  _387
REMARK  141  A    between atoms: _387  and  _388
REMARK  142  A    between atoms: _393  and  _395
REMARK  143  A    between atoms: _395  and  _396
REMARK  144  A    between atoms: _398  and  _400
REMARK  145  A    between atoms: _400  and  _401
REMARK  146  A    between atoms: _400  and  _403
REMARK  147  A    between atoms: _403  and  _404
REMARK  148  A    between atoms: _409  and  _410
REMARK  149  A    between atoms: _412  and  _414
REMARK  150  A    between atoms: _414  and  _415
REMARK  151  A    between atoms: _418  and  _420
REMARK  152  A    between atoms: _420  and  _421
REMARK  153  A    between atoms: _420  and  _423
REMARK  154  A    between atoms: _423  and  _424
REMARK  155  A    between atoms: _424  and  _425
REMARK  156  A    between atoms: _425  and  _426
REMARK  157  A    between atoms: _426  and  _427
REMARK  158  A    between atoms: _431  and  _433
REMARK  159  A    between atoms: _433  and  _434
REMARK  160  A    between atoms: _433  and  _436
REMARK  161  A    between atoms: _436  and  _437
REMARK  162  A    between atoms: _437  and  _438
REMARK  163  A    between atoms: _441  and  _443
REMARK  164  A    between atoms: _443  and  _444
REMARK  165  A    between atoms: _443  and  _446
REMARK  166  A    between atoms: _446  and  _447
REMARK  167  A    between atoms: _449  and  _451
REMARK  168  A    between atoms: _451  and  _452
REMARK  169  A    between atoms: _454  and  _456
REMARK  170  A    between atoms: _456  and  _457
REMARK  171  A    between atoms: _456  and  _459
REMARK  172  A    between atoms: _459  and  _460
REMARK  173  A    between atoms: _463  and  _465
REMARK  174  A    between atoms: _465  and  _466
REMARK  175  A    between atoms: _465  and  _468
REMARK  176  A    between atoms: _468  and  _469
REMARK  177  A    between atoms: _479  and  _481
REMARK  178  A    between atoms: _481  and  _482
REMARK  179  A    between atoms: _485  and  _487
REMARK  180  A    between atoms: _487  and  _488
REMARK  181  A    between atoms: _487  and  _490
REMARK  182  A    between atoms: _490  and  _491
REMARK  183  A    between atoms: _496  and  _497
REMARK  184  A    between atoms: _499  and  _501
REMARK  185  A    between atoms: _501  and  _502
REMARK  186  A    between atoms: _501  and  _504
REMARK  187  A    between atoms: _504  and  _505
REMARK  188  A    between atoms: _510  and  _511
REMARK  189  A    between atoms: _513  and  _515
REMARK  190  A    between atoms: _515  and  _516
REMARK  191  A    between atoms: _515  and  _518
REMARK  192  A    between atoms: _518  and  _519
REMARK  193  A    between atoms: _519  and  _520
REMARK  194  A    between atoms: _523  and  _525
REMARK  195  A    between atoms: _525  and  _526
REMARK  196  A    between atoms: _525  and  _528
REMARK  197  A    between atoms: _528  and  _529
REMARK  198  A    between atoms: _529  and  _530
REMARK  199  A    between atoms: _532  and  _534
REMARK  200  A    between atoms: _534  and  _535
REMARK  201  A    between atoms: _534  and  _537
REMARK  202  A    between atoms: _540  and  _542
REMARK  203  A    between atoms: _542  and  _543
REMARK  204  A    between atoms: _542  and  _545
REMARK  205  A    between atoms: _545  and  _546
REMARK  206  A    between atoms: _556  and  _558
REMARK  207  A    between atoms: _558  and  _559
REMARK  208  A    between atoms: _562  and  _564
REMARK  209  A    between atoms: _564  and  _565
REMARK  210  A    between atoms: _564  and  _567
REMARK  211  A    between atoms: _567  and  _568
REMARK  212  A    between atoms: _571  and  _573
REMARK  213  A    between atoms: _573  and  _574
REMARK  214  A    between atoms: _573  and  _576
REMARK  215  A    between atoms: _576  and  _577
REMARK                            x       y       z     vdW  Elec       q    Type
REMARK                         _______ _______ _______ _____ _____    ______ ____
ROOT
ATOM      1  O   HOH     1       8.480  -2.223 -18.151  0.00  0.00    +0.000 OA
ENDROOT
TORSDOF 0
REMARK  Name = ../refined-set-2016/3rm4/3rm4_pocket.pdb
REMARK  215 active torsions:
REMARK  status: ('A' for Active; 'I' for Inactive)
REMARK    1  A    between atoms: _1  and  _3
REMARK    2  A    between atoms: _3  and  _4
REMARK    3  A    between atoms: _3  and  _6
REMARK    4  A    between atoms: _6  and  _7
REMARK    5  A    between atoms: _12  and  _13
REMARK    6  A    between atoms: _15  and  _17
REMARK    7  A    between atoms: _17  and  _18
REMARK    8  A    between atoms: _17  and  _20
REMARK    9  A    between atoms: _20  and  _21
REMARK   10  A    between atoms: _24  and  _26
REMARK   11  A    between atoms: _26  and  _27
REMARK   12  A    between atoms: _26  and  _29
REMARK   13  A    between atoms: _29  and  _30
REMARK   14  A    between atoms: _40  and  _42
REMARK   15  A    between atoms: _42  and  _43
REMARK   16  A    between atoms: _42  and  _45
REMARK   17  A    between atoms: _45  and  _46
REMARK   18  A    between atoms: _46  and  _47
REMARK   19  A    between atoms: _47  and  _48
REMARK   20  A    between atoms: _57  and  _59
REMARK   21  A    between atoms: _59  and  _60
REMARK   22  A    between atoms: _59  and  _62
REMARK   23  A    between atoms: _62  and  _63
REMARK   24  A    between atoms: _66  and  _68
REMARK   25  A    between atoms: _68  and  _69
REMARK   26  A    between atoms: _72  and  _74
REMARK   27  A    between atoms: _74  and  _75
REMARK   28  A    between atoms: _74  and  _77
REMARK   29  A    between atoms: _77  and  _78
REMARK   30  A    between atoms: _84  and  _86
REMARK   31  A    between atoms: _86  and  _87
REMARK   32  A    between atoms: _90  and  _92
REMARK   33  A    between atoms: _92  and  _93
REMARK   34  A    between atoms: _92  and  _95
REMARK   35  A    between atoms: _95  and  _96
REMARK   36  A    between atoms: _99  and  _101
REMARK   37  A    between atoms: _101  and  _102
REMARK   38  A    between atoms: _104  and  _106
REMARK   39  A    between atoms: _106  and  _107
REMARK   40  A    between atoms: _109  and  _111
REMARK   41  A    between atoms: _111  and  _112
REMARK   42  A    between atoms: _111  and  _114
REMARK   43  A    between atoms: _114  and  _115
REMARK   44  A    between atoms: _125  and  _127
REMARK   45  A    between atoms: _127  and  _128
REMARK   46  A    between atoms: _127  and  _130
REMARK   47  A    between atoms: _130  and  _131
REMARK   48  A    between atoms: _136  and  _138
REMARK   49  A    between atoms: _138  and  _139
REMARK   50  A    between atoms: _138  and  _141
REMARK   51  A    between atoms: _141  and  _142
REMARK   52  A    between atoms: _145  and  _147
REMARK   53  A    between atoms: _147  and  _148
REMARK   54  A    between atoms: _147  and  _150
REMARK   55  A    between atoms: _150  and  _151
REMARK   56  A    between atoms: _157  and  _159
REMARK   57  A    between atoms: _159  and  _160
REMARK   58  A    between atoms: _159  and  _162
REMARK   59  A    between atoms: _162  and  _163
REMARK   60  A    between atoms: _166  and  _168
REMARK   61  A    between atoms: _168  and  _169
REMARK   62  A    between atoms: _168  and  _171
REMARK   63  A    between atoms: _171  and  _172
REMARK   64  A    between atoms: _182  and  _184
REMARK   65  A    between atoms: _184  and  _185
REMARK   66  A    between atoms: _184  and  _187
REMARK   67  A    between atoms: _187  and  _188
REMARK   68  A    between atoms: _188  and  _189
REMARK   69  A    between atoms: _192  and  _194
REMARK   70  A    between atoms: _194  and  _195
REMARK   71  A    between atoms: _194  and  _197
REMARK   72  A    between atoms: _197  and  _198
REMARK   73  A    between atoms: _203  and  _204
REMARK   74  A    between atoms: _206  and  _208
REMARK   75  A    between atoms: _208  and  _209
REMARK   76  A    between atoms: _208  and  _211
REMARK   77  A    between atoms: _211  and  _212
REMARK   78  A    between atoms: _212  and  _213
REMARK   79  A    between atoms: _213  and  _214
REMARK   80  A    between atoms: _223  and  _225
REMARK   81  A    between atoms: _225  and  _226
REMARK   82  A    between atoms: _229  and  _231
REMARK   83  A    between atoms: _231  and  _232
REMARK   84  A    between atoms: _235  and  _237
REMARK   85  A    between atoms: _237  and  _238
REMARK   86  A    between atoms: _237  and  _240
REMARK   87  A    between atoms: _243  and  _245
REMARK   88  A    between atoms: _245  and  _246
REMARK   89  A    between atoms: _245  and  _248
REMARK   90  A    between atoms: _248  and  _249
REMARK   91  A    between atoms: _254  and  _256
REMARK   92  A    between atoms: _256  and  _257
REMARK   93  A    between atoms: _256  and  _259
REMARK   94  A    between atoms: _262  and  _264
REMARK   95  A    between atoms: _264  and  _265
REMARK   96  A    between atoms: _264  and  _267
REMARK   97  A    between atoms: _267  and  _268
REMARK   98  A    between atoms: _268  and  _269
REMARK   99  A    between atoms: _271  and  _273
REMARK  100  A    between atoms: _273  and  _274
REMARK  101  A    between atoms: _273  and  _276
REMARK  102  A    between atoms: _276  and  _277
REMARK  103  A    between atoms: _280  and  _282
REMARK  104  A    between atoms: _282  and  _283
REMARK  105  A    between atoms: _282  and  _285
REMARK  106  A    between atoms: _285  and  _286
REMARK  107  A    between atoms: _291  and  _292
REMARK  108  A    between atoms: _294  and  _296
REMARK  109  A    between atoms: _296  and  _297
REMARK  110  A    between atoms: _296  and  _299
REMARK  111  A    between atoms: _299  and  _300
REMARK  112  A    between atoms: _303  and  _305
REMARK  113  A    between atoms: _305  and  _306
REMARK  114  A    between atoms: _305  and  _308
REMARK  115  A    between atoms: _308  and  _309
REMARK  116  A    between atoms: _319  and  _321
REMARK  117  A    between atoms: _321  and  _322
REMARK  118  A    between atoms: _321  and  _324
REMARK  119  A    between atoms: _324  and  _325
REMARK  120  A    between atoms: _330  and  _332
REMARK  121  A    between atoms: _332  and  _333
REMARK  122  A    between atoms: _335  and  _337
REMARK  123  A    between atoms: _337  and  _338
REMARK  124  A    between atoms: _337  and  _340
REMARK  125  A    between atoms: _340  and  _341
REMARK  126  A    between atoms: _348  and  _349
REMARK  127  A    between atoms: _354  and  _356
REMARK  128  A    between atoms: _356  and  _357
REMARK  129  A    between atoms: _356  and  _359
REMARK  130  A    between atoms: _359  and  _360
REMARK  131  A    between atoms: _363  and  _365
REMARK  132  A    between atoms: _365  and  _366
REMARK  133  A    between atoms: _365  and  _368
REMARK  134  A    between atoms: _368  and  _369
REMARK  135  A    between atoms: _374  and  _375
REMARK  136  A    between atoms: _377  and  _379
REMARK  137  A    between atoms: _379  and  _380
REMARK  138  A    between atoms: _382  and  _384
REMARK  139  A    between atoms: _384  and  _385
REMARK  140  A    between atoms: _384  and  _387
REMARK  141  A    between atoms: _387  and  _388
REMARK  142  A    between atoms: _393  and  _395
REMARK  143  A    between atoms: _395  and  _396
REMARK  144  A    between atoms: _398  and  _400
REMARK  145  A    between atoms: _400  and  _401
REMARK  146  A    between atoms: _400  and  _403
REMARK  147  A    between atoms: _403  and  _404
REMARK  148  A    between atoms: _409  and  _410
REMARK  149  A    between atoms: _412  and  _414
REMARK  150  A    between atoms: _414  and  _415
REMARK  151  A    between atoms: _418  and  _420
REMARK  152  A    between atoms: _420  and  _421
REMARK  153  A    between atoms: _420  and  _423
REMARK  154  A    between atoms: _423  and  _424
REMARK  155  A    between atoms: _424  and  _425
REMARK  156  A    between atoms: _425  and  _426
REMARK  157  A    between atoms: _426  and  _427
REMARK  158  A    between atoms: _431  and  _433
REMARK  159  A    between atoms: _433  and  _434
REMARK  160  A    between atoms: _433  and  _436
REMARK  161  A    between atoms: _436  and  _437
REMARK  162  A    between atoms: _437  and  _438
REMARK  163  A    between atoms: _441  and  _443
REMARK  164  A    between atoms: _443  and  _444
REMARK  165  A    between atoms: _443  and  _446
REMARK  166  A    between atoms: _446  and  _447
REMARK  167  A    between atoms: _449  and  _451
REMARK  168  A    between atoms: _451  and  _452
REMARK  169  A    between atoms: _454  and  _456
REMARK  170  A    between atoms: _456  and  _457
REMARK  171  A    between atoms: _456  and  _459
REMARK  172  A    between atoms: _459  and  _460
REMARK  173  A    between atoms: _463  and  _465
REMARK  174  A    between atoms: _465  and  _466
REMARK  175  A    between atoms: _465  and  _468
REMARK  176  A    between atoms: _468  and  _469
REMARK  177  A    between atoms: _479  and  _481
REMARK  178  A    between atoms: _481  and  _482
REMARK  179  A    between atoms: _485  and  _487
REMARK  180  A    between atoms: _487  and  _488
REMARK  181  A    between atoms: _487  and  _490
REMARK  182  A    between atoms: _490  and  _491
REMARK  183  A    between atoms: _496  and  _497
REMARK  184  A    between atoms: _499  and  _501
REMARK  185  A    between atoms: _501  and  _502
REMARK  186  A    between atoms: _501  and  _504
REMARK  187  A    between atoms: _504  and  _505
REMARK  188  A    between atoms: _510  and  _511
REMARK  189  A    between atoms: _513  and  _515
REMARK  190  A    between atoms: _515  and  _516
REMARK  191  A    between atoms: _515  and  _518
REMARK  192  A    between atoms: _518  and  _519
REMARK  193  A    between atoms: _519  and  _520
REMARK  194  A    between atoms: _523  and  _525
REMARK  195  A    between atoms: _525  and  _526
REMARK  196  A    between atoms: _525  and  _528
REMARK  197  A    between atoms: _528  and  _529
REMARK  198  A    between atoms: _529  and  _530
REMARK  199  A    between atoms: _532  and  _534
REMARK  200  A    between atoms: _534  and  _535
REMARK  201  A    between atoms: _534  and  _537
REMARK  202  A    between atoms: _540  and  _542
REMARK  203  A    between atoms: _542  and  _543
REMARK  204  A    between atoms: _542  and  _545
REMARK  205  A    between atoms: _545  and  _546
REMARK  206  A    between atoms: _556  and  _558
REMARK  207  A    between atoms: _558  and  _559
REMARK  208  A    between atoms: _562  and  _564
REMARK  209  A    between atoms: _564  and  _565
REMARK  210  A    between atoms: _564  and  _567
REMARK  211  A    between atoms: _567  and  _568
REMARK  212  A    between atoms: _571  and  _573
REMARK  213  A    between atoms: _573  and  _574
REMARK  214  A    between atoms: _573  and  _576
REMARK  215  A    between atoms: _576  and  _577
REMARK                            x       y       z     vdW  Elec       q    Type
REMARK                         _______ _______ _______ _____ _____    ______ ____
ROOT
ATOM      1  O   HOH     1       2.299  10.224 -11.513  0.00  0.00    +0.000 OA
ENDROOT
TORSDOF 0
REMARK  Name = ../refined-set-2016/3rm4/3rm4_pocket.pdb
REMARK  215 active torsions:
REMARK  status: ('A' for Active; 'I' for Inactive)
REMARK    1  A    between atoms: _1  and  _3
REMARK    2  A    between atoms: _3  and  _4
REMARK    3  A    between atoms: _3  and  _6
REMARK    4  A    between atoms: _6  and  _7
REMARK    5  A    between atoms: _12  and  _13
REMARK    6  A    between atoms: _15  and  _17
REMARK    7  A    between atoms: _17  and  _18
REMARK    8  A    between atoms: _17  and  _20
REMARK    9  A    between atoms: _20  and  _21
REMARK   10  A    between atoms: _24  and  _26
REMARK   11  A    between atoms: _26  and  _27
REMARK   12  A    between atoms: _26  and  _29
REMARK   13  A    between atoms: _29  and  _30
REMARK   14  A    between atoms: _40  and  _42
REMARK   15  A    between atoms: _42  and  _43
REMARK   16  A    between atoms: _42  and  _45
REMARK   17  A    between atoms: _45  and  _46
REMARK   18  A    between atoms: _46  and  _47
REMARK   19  A    between atoms: _47  and  _48
REMARK   20  A    between atoms: _57  and  _59
REMARK   21  A    between atoms: _59  and  _60
REMARK   22  A    between atoms: _59  and  _62
REMARK   23  A    between atoms: _62  and  _63
REMARK   24  A    between atoms: _66  and  _68
REMARK   25  A    between atoms: _68  and  _69
REMARK   26  A    between atoms: _72  and  _74
REMARK   27  A    between atoms: _74  and  _75
REMARK   28  A    between atoms: _74  and  _77
REMARK   29  A    between atoms: _77  and  _78
REMARK   30  A    between atoms: _84  and  _86
REMARK   31  A    between atoms: _86  and  _87
REMARK   32  A    between atoms: _90  and  _92
REMARK   33  A    between atoms: _92  and  _93
REMARK   34  A    between atoms: _92  and  _95
REMARK   35  A    between atoms: _95  and  _96
REMARK   36  A    between atoms: _99  and  _101
REMARK   37  A    between atoms: _101  and  _102
REMARK   38  A    between atoms: _104  and  _106
REMARK   39  A    between atoms: _106  and  _107
REMARK   40  A    between atoms: _109  and  _111
REMARK   41  A    between atoms: _111  and  _112
REMARK   42  A    between atoms: _111  and  _114
REMARK   43  A    between atoms: _114  and  _115
REMARK   44  A    between atoms: _125  and  _127
REMARK   45  A    between atoms: _127  and  _128
REMARK   46  A    between atoms: _127  and  _130
REMARK   47  A    between atoms: _130  and  _131
REMARK   48  A    between atoms: _136  and  _138
REMARK   49  A    between atoms: _138  and  _139
REMARK   50  A    between atoms: _138  and  _141
REMARK   51  A    between atoms: _141  and  _142
REMARK   52  A    between atoms: _145  and  _147
REMARK   53  A    between atoms: _147  and  _148
REMARK   54  A    between atoms: _147  and  _150
REMARK   55  A    between atoms: _150  and  _151
REMARK   56  A    between atoms: _157  and  _159
REMARK   57  A    between atoms: _159  and  _160
REMARK   58  A    between atoms: _159  and  _162
REMARK   59  A    between atoms: _162  and  _163
REMARK   60  A    between atoms: _166  and  _168
REMARK   61  A    between atoms: _168  and  _169
REMARK   62  A    between atoms: _168  and  _171
REMARK   63  A    between atoms: _171  and  _172
REMARK   64  A    between atoms: _182  and  _184
REMARK   65  A    between atoms: _184  and  _185
REMARK   66  A    between atoms: _184  and  _187
REMARK   67  A    between atoms: _187  and  _188
REMARK   68  A    between atoms: _188  and  _189
REMARK   69  A    between atoms: _192  and  _194
REMARK   70  A    between atoms: _194  and  _195
REMARK   71  A    between atoms: _194  and  _197
REMARK   72  A    between atoms: _197  and  _198
REMARK   73  A    between atoms: _203  and  _204
REMARK   74  A    between atoms: _206  and  _208
REMARK   75  A    between atoms: _208  and  _209
REMARK   76  A    between atoms: _208  and  _211
REMARK   77  A    between atoms: _211  and  _212
REMARK   78  A    between atoms: _212  and  _213
REMARK   79  A    between atoms: _213  and  _214
REMARK   80  A    between atoms: _223  and  _225
REMARK   81  A    between atoms: _225  and  _226
REMARK   82  A    between atoms: _229  and  _231
REMARK   83  A    between atoms: _231  and  _232
REMARK   84  A    between atoms: _235  and  _237
REMARK   85  A    between atoms: _237  and  _238
REMARK   86  A    between atoms: _237  and  _240
REMARK   87  A    between atoms: _243  and  _245
REMARK   88  A    between atoms: _245  and  _246
REMARK   89  A    between atoms: _245  and  _248
REMARK   90  A    between atoms: _248  and  _249
REMARK   91  A    between atoms: _254  and  _256
REMARK   92  A    between atoms: _256  and  _257
REMARK   93  A    between atoms: _256  and  _259
REMARK   94  A    between atoms: _262  and  _264
REMARK   95  A    between atoms: _264  and  _265
REMARK   96  A    between atoms: _264  and  _267
REMARK   97  A    between atoms: _267  and  _268
REMARK   98  A    between atoms: _268  and  _269
REMARK   99  A    between atoms: _271  and  _273
REMARK  100  A    between atoms: _273  and  _274
REMARK  101  A    between atoms: _273  and  _276
REMARK  102  A    between atoms: _276  and  _277
REMARK  103  A    between atoms: _280  and  _282
REMARK  104  A    between atoms: _282  and  _283
REMARK  105  A    between atoms: _282  and  _285
REMARK  106  A    between atoms: _285  and  _286
REMARK  107  A    between atoms: _291  and  _292
REMARK  108  A    between atoms: _294  and  _296
REMARK  109  A    between atoms: _296  and  _297
REMARK  110  A    between atoms: _296  and  _299
REMARK  111  A    between atoms: _299  and  _300
REMARK  112  A    between atoms: _303  and  _305
REMARK  113  A    between atoms: _305  and  _306
REMARK  114  A    between atoms: _305  and  _308
REMARK  115  A    between atoms: _308  and  _309
REMARK  116  A    between atoms: _319  and  _321
REMARK  117  A    between atoms: _321  and  _322
REMARK  118  A    between atoms: _321  and  _324
REMARK  119  A    between atoms: _324  and  _325
REMARK  120  A    between atoms: _330  and  _332
REMARK  121  A    between atoms: _332  and  _333
REMARK  122  A    between atoms: _335  and  _337
REMARK  123  A    between atoms: _337  and  _338
REMARK  124  A    between atoms: _337  and  _340
REMARK  125  A    between atoms: _340  and  _341
REMARK  126  A    between atoms: _348  and  _349
REMARK  127  A    between atoms: _354  and  _356
REMARK  128  A    between atoms: _356  and  _357
REMARK  129  A    between atoms: _356  and  _359
REMARK  130  A    between atoms: _359  and  _360
REMARK  131  A    between atoms: _363  and  _365
REMARK  132  A    between atoms: _365  and  _366
REMARK  133  A    between atoms: _365  and  _368
REMARK  134  A    between atoms: _368  and  _369
REMARK  135  A    between atoms: _374  and  _375
REMARK  136  A    between atoms: _377  and  _379
REMARK  137  A    between atoms: _379  and  _380
REMARK  138  A    between atoms: _382  and  _384
REMARK  139  A    between atoms: _384  and  _385
REMARK  140  A    between atoms: _384  and  _387
REMARK  141  A    between atoms: _387  and  _388
REMARK  142  A    between atoms: _393  and  _395
REMARK  143  A    between atoms: _395  and  _396
REMARK  144  A    between atoms: _398  and  _400
REMARK  145  A    between atoms: _400  and  _401
REMARK  146  A    between atoms: _400  and  _403
REMARK  147  A    between atoms: _403  and  _404
REMARK  148  A    between atoms: _409  and  _410
REMARK  149  A    between atoms: _412  and  _414
REMARK  150  A    between atoms: _414  and  _415
REMARK  151  A    between atoms: _418  and  _420
REMARK  152  A    between atoms: _420  and  _421
REMARK  153  A    between atoms: _420  and  _423
REMARK  154  A    between atoms: _423  and  _424
REMARK  155  A    between atoms: _424  and  _425
REMARK  156  A    between atoms: _425  and  _426
REMARK  157  A    between atoms: _426  and  _427
REMARK  158  A    between atoms: _431  and  _433
REMARK  159  A    between atoms: _433  and  _434
REMARK  160  A    between atoms: _433  and  _436
REMARK  161  A    between atoms: _436  and  _437
REMARK  162  A    between atoms: _437  and  _438
REMARK  163  A    between atoms: _441  and  _443
REMARK  164  A    between atoms: _443  and  _444
REMARK  165  A    between atoms: _443  and  _446
REMARK  166  A    between atoms: _446  and  _447
REMARK  167  A    between atoms: _449  and  _451
REMARK  168  A    between atoms: _451  and  _452
REMARK  169  A    between atoms: _454  and  _456
REMARK  170  A    between atoms: _456  and  _457
REMARK  171  A    between atoms: _456  and  _459
REMARK  172  A    between atoms: _459  and  _460
REMARK  173  A    between atoms: _463  and  _465
REMARK  174  A    between atoms: _465  and  _466
REMARK  175  A    between atoms: _465  and  _468
REMARK  176  A    between atoms: _468  and  _469
REMARK  177  A    between atoms: _479  and  _481
REMARK  178  A    between atoms: _481  and  _482
REMARK  179  A    between atoms: _485  and  _487
REMARK  180  A    between atoms: _487  and  _488
REMARK  181  A    between atoms: _487  and  _490
REMARK  182  A    between atoms: _490  and  _491
REMARK  183  A    between atoms: _496  and  _497
REMARK  184  A    between atoms: _499  and  _501
REMARK  185  A    between atoms: _501  and  _502
REMARK  186  A    between atoms: _501  and  _504
REMARK  187  A    between atoms: _504  and  _505
REMARK  188  A    between atoms: _510  and  _511
REMARK  189  A    between atoms: _513  and  _515
REMARK  190  A    between atoms: _515  and  _516
REMARK  191  A    between atoms: _515  and  _518
REMARK  192  A    between atoms: _518  and  _519
REMARK  193  A    between atoms: _519  and  _520
REMARK  194  A    between atoms: _523  and  _525
REMARK  195  A    between atoms: _525  and  _526
REMARK  196  A    between atoms: _525  and  _528
REMARK  197  A    between atoms: _528  and  _529
REMARK  198  A    between atoms: _529  and  _530
REMARK  199  A    between atoms: _532  and  _534
REMARK  200  A    between atoms: _534  and  _535
REMARK  201  A    between atoms: _534  and  _537
REMARK  202  A    between atoms: _540  and  _542
REMARK  203  A    between atoms: _542  and  _543
REMARK  204  A    between atoms: _542  and  _545
REMARK  205  A    between atoms: _545  and  _546
REMARK  206  A    between atoms: _556  and  _558
REMARK  207  A    between atoms: _558  and  _559
REMARK  208  A    between atoms: _562  and  _564
REMARK  209  A    between atoms: _564  and  _565
REMARK  210  A    between atoms: _564  and  _567
REMARK  211  A    between atoms: _567  and  _568
REMARK  212  A    between atoms: _571  and  _573
REMARK  213  A    between atoms: _573  and  _574
REMARK  214  A    between atoms: _573  and  _576
REMARK  215  A    between atoms: _576  and  _577
REMARK                            x       y       z     vdW  Elec       q    Type
REMARK                         _______ _______ _______ _____ _____    ______ ____
ROOT
ATOM      1  O   HOH     1       6.652  13.290 -14.077  0.00  0.00    +0.000 OA
ENDROOT
TORSDOF 0
REMARK  Name = ../refined-set-2016/3rm4/3rm4_pocket.pdb
REMARK  215 active torsions:
REMARK  status: ('A' for Active; 'I' for Inactive)
REMARK    1  A    between atoms: _1  and  _3
REMARK    2  A    between atoms: _3  and  _4
REMARK    3  A    between atoms: _3  and  _6
REMARK    4  A    between atoms: _6  and  _7
REMARK    5  A    between atoms: _12  and  _13
REMARK    6  A    between atoms: _15  and  _17
REMARK    7  A    between atoms: _17  and  _18
REMARK    8  A    between atoms: _17  and  _20
REMARK    9  A    between atoms: _20  and  _21
REMARK   10  A    between atoms: _24  and  _26
REMARK   11  A    between atoms: _26  and  _27
REMARK   12  A    between atoms: _26  and  _29
REMARK   13  A    between atoms: _29  and  _30
REMARK   14  A    between atoms: _40  and  _42
REMARK   15  A    between atoms: _42  and  _43
REMARK   16  A    between atoms: _42  and  _45
REMARK   17  A    between atoms: _45  and  _46
REMARK   18  A    between atoms: _46  and  _47
REMARK   19  A    between atoms: _47  and  _48
REMARK   20  A    between atoms: _57  and  _59
REMARK   21  A    between atoms: _59  and  _60
REMARK   22  A    between atoms: _59  and  _62
REMARK   23  A    between atoms: _62  and  _63
REMARK   24  A    between atoms: _66  and  _68
REMARK   25  A    between atoms: _68  and  _69
REMARK   26  A    between atoms: _72  and  _74
REMARK   27  A    between atoms: _74  and  _75
REMARK   28  A    between atoms: _74  and  _77
REMARK   29  A    between atoms: _77  and  _78
REMARK   30  A    between atoms: _84  and  _86
REMARK   31  A    between atoms: _86  and  _87
REMARK   32  A    between atoms: _90  and  _92
REMARK   33  A    between atoms: _92  and  _93
REMARK   34  A    between atoms: _92  and  _95
REMARK   35  A    between atoms: _95  and  _96
REMARK   36  A    between atoms: _99  and  _101
REMARK   37  A    between atoms: _101  and  _102
REMARK   38  A    between atoms: _104  and  _106
REMARK   39  A    between atoms: _106  and  _107
REMARK   40  A    between atoms: _109  and  _111
REMARK   41  A    between atoms: _111  and  _112
REMARK   42  A    between atoms: _111  and  _114
REMARK   43  A    between atoms: _114  and  _115
REMARK   44  A    between atoms: _125  and  _127
REMARK   45  A    between atoms: _127  and  _128
REMARK   46  A    between atoms: _127  and  _130
REMARK   47  A    between atoms: _130  and  _131
REMARK   48  A    between atoms: _136  and  _138
REMARK   49  A    between atoms: _138  and  _139
REMARK   50  A    between atoms: _138  and  _141
REMARK   51  A    between atoms: _141  and  _142
REMARK   52  A    between atoms: _145  and  _147
REMARK   53  A    between atoms: _147  and  _148
REMARK   54  A    between atoms: _147  and  _150
REMARK   55  A    between atoms: _150  and  _151
REMARK   56  A    between atoms: _157  and  _159
REMARK   57  A    between atoms: _159  and  _160
REMARK   58  A    between atoms: _159  and  _162
REMARK   59  A    between atoms: _162  and  _163
REMARK   60  A    between atoms: _166  and  _168
REMARK   61  A    between atoms: _168  and  _169
REMARK   62  A    between atoms: _168  and  _171
REMARK   63  A    between atoms: _171  and  _172
REMARK   64  A    between atoms: _182  and  _184
REMARK   65  A    between atoms: _184  and  _185
REMARK   66  A    between atoms: _184  and  _187
REMARK   67  A    between atoms: _187  and  _188
REMARK   68  A    between atoms: _188  and  _189
REMARK   69  A    between atoms: _192  and  _194
REMARK   70  A    between atoms: _194  and  _195
REMARK   71  A    between atoms: _194  and  _197
REMARK   72  A    between atoms: _197  and  _198
REMARK   73  A    between atoms: _203  and  _204
REMARK   74  A    between atoms: _206  and  _208
REMARK   75  A    between atoms: _208  and  _209
REMARK   76  A    between atoms: _208  and  _211
REMARK   77  A    between atoms: _211  and  _212
REMARK   78  A    between atoms: _212  and  _213
REMARK   79  A    between atoms: _213  and  _214
REMARK   80  A    between atoms: _223  and  _225
REMARK   81  A    between atoms: _225  and  _226
REMARK   82  A    between atoms: _229  and  _231
REMARK   83  A    between atoms: _231  and  _232
REMARK   84  A    between atoms: _235  and  _237
REMARK   85  A    between atoms: _237  and  _238
REMARK   86  A    between atoms: _237  and  _240
REMARK   87  A    between atoms: _243  and  _245
REMARK   88  A    between atoms: _245  and  _246
REMARK   89  A    between atoms: _245  and  _248
REMARK   90  A    between atoms: _248  and  _249
REMARK   91  A    between atoms: _254  and  _256
REMARK   92  A    between atoms: _256  and  _257
REMARK   93  A    between atoms: _256  and  _259
REMARK   94  A    between atoms: _262  and  _264
REMARK   95  A    between atoms: _264  and  _265
REMARK   96  A    between atoms: _264  and  _267
REMARK   97  A    between atoms: _267  and  _268
REMARK   98  A    between atoms: _268  and  _269
REMARK   99  A    between atoms: _271  and  _273
REMARK  100  A    between atoms: _273  and  _274
REMARK  101  A    between atoms: _273  and  _276
REMARK  102  A    between atoms: _276  and  _277
REMARK  103  A    between atoms: _280  and  _282
REMARK  104  A    between atoms: _282  and  _283
REMARK  105  A    between atoms: _282  and  _285
REMARK  106  A    between atoms: _285  and  _286
REMARK  107  A    between atoms: _291  and  _292
REMARK  108  A    between atoms: _294  and  _296
REMARK  109  A    between atoms: _296  and  _297
REMARK  110  A    between atoms: _296  and  _299
REMARK  111  A    between atoms: _299  and  _300
REMARK  112  A    between atoms: _303  and  _305
REMARK  113  A    between atoms: _305  and  _306
REMARK  114  A    between atoms: _305  and  _308
REMARK  115  A    between atoms: _308  and  _309
REMARK  116  A    between atoms: _319  and  _321
REMARK  117  A    between atoms: _321  and  _322
REMARK  118  A    between atoms: _321  and  _324
REMARK  119  A    between atoms: _324  and  _325
REMARK  120  A    between atoms: _330  and  _332
REMARK  121  A    between atoms: _332  and  _333
REMARK  122  A    between atoms: _335  and  _337
REMARK  123  A    between atoms: _337  and  _338
REMARK  124  A    between atoms: _337  and  _340
REMARK  125  A    between atoms: _340  and  _341
REMARK  126  A    between atoms: _348  and  _349
REMARK  127  A    between atoms: _354  and  _356
REMARK  128  A    between atoms: _356  and  _357
REMARK  129  A    between atoms: _356  and  _359
REMARK  130  A    between atoms: _359  and  _360
REMARK  131  A    between atoms: _363  and  _365
REMARK  132  A    between atoms: _365  and  _366
REMARK  133  A    between atoms: _365  and  _368
REMARK  134  A    between atoms: _368  and  _369
REMARK  135  A    between atoms: _374  and  _375
REMARK  136  A    between atoms: _377  and  _379
REMARK  137  A    between atoms: _379  and  _380
REMARK  138  A    between atoms: _382  and  _384
REMARK  139  A    between atoms: _384  and  _385
REMARK  140  A    between atoms: _384  and  _387
REMARK  141  A    between atoms: _387  and  _388
REMARK  142  A    between atoms: _393  and  _395
REMARK  143  A    between atoms: _395  and  _396
REMARK  144  A    between atoms: _398  and  _400
REMARK  145  A    between atoms: _400  and  _401
REMARK  146  A    between atoms: _400  and  _403
REMARK  147  A    between atoms: _403  and  _404
REMARK  148  A    between atoms: _409  and  _410
REMARK  149  A    between atoms: _412  and  _414
REMARK  150  A    between atoms: _414  and  _415
REMARK  151  A    between atoms: _418  and  _420
REMARK  152  A    between atoms: _420  and  _421
REMARK  153  A    between atoms: _420  and  _423
REMARK  154  A    between atoms: _423  and  _424
REMARK  155  A    between atoms: _424  and  _425
REMARK  156  A    between atoms: _425  and  _426
REMARK  157  A    between atoms: _426  and  _427
REMARK  158  A    between atoms: _431  and  _433
REMARK  159  A    between atoms: _433  and  _434
REMARK  160  A    between atoms: _433  and  _436
REMARK  161  A    between atoms: _436  and  _437
REMARK  162  A    between atoms: _437  and  _438
REMARK  163  A    between atoms: _441  and  _443
REMARK  164  A    between atoms: _443  and  _444
REMARK  165  A    between atoms: _443  and  _446
REMARK  166  A    between atoms: _446  and  _447
REMARK  167  A    between atoms: _449  and  _451
REMARK  168  A    between atoms: _451  and  _452
REMARK  169  A    between atoms: _454  and  _456
REMARK  170  A    between atoms: _456  and  _457
REMARK  171  A    between atoms: _456  and  _459
REMARK  172  A    between atoms: _459  and  _460
REMARK  173  A    between atoms: _463  and  _465
REMARK  174  A    between atoms: _465  and  _466
REMARK  175  A    between atoms: _465  and  _468
REMARK  176  A    between atoms: _468  and  _469
REMARK  177  A    between atoms: _479  and  _481
REMARK  178  A    between atoms: _481  and  _482
REMARK  179  A    between atoms: _485  and  _487
REMARK  180  A    between atoms: _487  and  _488
REMARK  181  A    between atoms: _487  and  _490
REMARK  182  A    between atoms: _490  and  _491
REMARK  183  A    between atoms: _496  and  _497
REMARK  184  A    between atoms: _499  and  _501
REMARK  185  A    between atoms: _501  and  _502
REMARK  186  A    between atoms: _501  and  _504
REMARK  187  A    between atoms: _504  and  _505
REMARK  188  A    between atoms: _510  and  _511
REMARK  189  A    between atoms: _513  and  _515
REMARK  190  A    between atoms: _515  and  _516
REMARK  191  A    between atoms: _515  and  _518
REMARK  192  A    between atoms: _518  and  _519
REMARK  193  A    between atoms: _519  and  _520
REMARK  194  A    between atoms: _523  and  _525
REMARK  195  A    between atoms: _525  and  _526
REMARK  196  A    between atoms: _525  and  _528
REMARK  197  A    between atoms: _528  and  _529
REMARK  198  A    between atoms: _529  and  _530
REMARK  199  A    between atoms: _532  and  _534
REMARK  200  A    between atoms: _534  and  _535
REMARK  201  A    between atoms: _534  and  _537
REMARK  202  A    between atoms: _540  and  _542
REMARK  203  A    between atoms: _542  and  _543
REMARK  204  A    between atoms: _542  and  _545
REMARK  205  A    between atoms: _545  and  _546
REMARK  206  A    between atoms: _556  and  _558
REMARK  207  A    between atoms: _558  and  _559
REMARK  208  A    between atoms: _562  and  _564
REMARK  209  A    between atoms: _564  and  _565
REMARK  210  A    between atoms: _564  and  _567
REMARK  211  A    between atoms: _567  and  _568
REMARK  212  A    between atoms: _571  and  _573
REMARK  213  A    between atoms: _573  and  _574
REMARK  214  A    between atoms: _573  and  _576
REMARK  215  A    between atoms: _576  and  _577
REMARK                            x       y       z     vdW  Elec       q    Type
REMARK                         _______ _______ _______ _____ _____    ______ ____
ROOT
ATOM      1  O   HOH     1      -1.757   2.052 -11.005  0.00  0.00    +0.000 OA
ENDROOT
TORSDOF 0
REMARK  Name = ../refined-set-2016/3rm4/3rm4_pocket.pdb
REMARK  215 active torsions:
REMARK  status: ('A' for Active; 'I' for Inactive)
REMARK    1  A    between atoms: _1  and  _3
REMARK    2  A    between atoms: _3  and  _4
REMARK    3  A    between atoms: _3  and  _6
REMARK    4  A    between atoms: _6  and  _7
REMARK    5  A    between atoms: _12  and  _13
REMARK    6  A    between atoms: _15  and  _17
REMARK    7  A    between atoms: _17  and  _18
REMARK    8  A    between atoms: _17  and  _20
REMARK    9  A    between atoms: _20  and  _21
REMARK   10  A    between atoms: _24  and  _26
REMARK   11  A    between atoms: _26  and  _27
REMARK   12  A    between atoms: _26  and  _29
REMARK   13  A    between atoms: _29  and  _30
REMARK   14  A    between atoms: _40  and  _42
REMARK   15  A    between atoms: _42  and  _43
REMARK   16  A    between atoms: _42  and  _45
REMARK   17  A    between atoms: _45  and  _46
REMARK   18  A    between atoms: _46  and  _47
REMARK   19  A    between atoms: _47  and  _48
REMARK   20  A    between atoms: _57  and  _59
REMARK   21  A    between atoms: _59  and  _60
REMARK   22  A    between atoms: _59  and  _62
REMARK   23  A    between atoms: _62  and  _63
REMARK   24  A    between atoms: _66  and  _68
REMARK   25  A    between atoms: _68  and  _69
REMARK   26  A    between atoms: _72  and  _74
REMARK   27  A    between atoms: _74  and  _75
REMARK   28  A    between atoms: _74  and  _77
REMARK   29  A    between atoms: _77  and  _78
REMARK   30  A    between atoms: _84  and  _86
REMARK   31  A    between atoms: _86  and  _87
REMARK   32  A    between atoms: _90  and  _92
REMARK   33  A    between atoms: _92  and  _93
REMARK   34  A    between atoms: _92  and  _95
REMARK   35  A    between atoms: _95  and  _96
REMARK   36  A    between atoms: _99  and  _101
REMARK   37  A    between atoms: _101  and  _102
REMARK   38  A    between atoms: _104  and  _106
REMARK   39  A    between atoms: _106  and  _107
REMARK   40  A    between atoms: _109  and  _111
REMARK   41  A    between atoms: _111  and  _112
REMARK   42  A    between atoms: _111  and  _114
REMARK   43  A    between atoms: _114  and  _115
REMARK   44  A    between atoms: _125  and  _127
REMARK   45  A    between atoms: _127  and  _128
REMARK   46  A    between atoms: _127  and  _130
REMARK   47  A    between atoms: _130  and  _131
REMARK   48  A    between atoms: _136  and  _138
REMARK   49  A    between atoms: _138  and  _139
REMARK   50  A    between atoms: _138  and  _141
REMARK   51  A    between atoms: _141  and  _142
REMARK   52  A    between atoms: _145  and  _147
REMARK   53  A    between atoms: _147  and  _148
REMARK   54  A    between atoms: _147  and  _150
REMARK   55  A    between atoms: _150  and  _151
REMARK   56  A    between atoms: _157  and  _159
REMARK   57  A    between atoms: _159  and  _160
REMARK   58  A    between atoms: _159  and  _162
REMARK   59  A    between atoms: _162  and  _163
REMARK   60  A    between atoms: _166  and  _168
REMARK   61  A    between atoms: _168  and  _169
REMARK   62  A    between atoms: _168  and  _171
REMARK   63  A    between atoms: _171  and  _172
REMARK   64  A    between atoms: _182  and  _184
REMARK   65  A    between atoms: _184  and  _185
REMARK   66  A    between atoms: _184  and  _187
REMARK   67  A    between atoms: _187  and  _188
REMARK   68  A    between atoms: _188  and  _189
REMARK   69  A    between atoms: _192  and  _194
REMARK   70  A    between atoms: _194  and  _195
REMARK   71  A    between atoms: _194  and  _197
REMARK   72  A    between atoms: _197  and  _198
REMARK   73  A    between atoms: _203  and  _204
REMARK   74  A    between atoms: _206  and  _208
REMARK   75  A    between atoms: _208  and  _209
REMARK   76  A    between atoms: _208  and  _211
REMARK   77  A    between atoms: _211  and  _212
REMARK   78  A    between atoms: _212  and  _213
REMARK   79  A    between atoms: _213  and  _214
REMARK   80  A    between atoms: _223  and  _225
REMARK   81  A    between atoms: _225  and  _226
REMARK   82  A    between atoms: _229  and  _231
REMARK   83  A    between atoms: _231  and  _232
REMARK   84  A    between atoms: _235  and  _237
REMARK   85  A    between atoms: _237  and  _238
REMARK   86  A    between atoms: _237  and  _240
REMARK   87  A    between atoms: _243  and  _245
REMARK   88  A    between atoms: _245  and  _246
REMARK   89  A    between atoms: _245  and  _248
REMARK   90  A    between atoms: _248  and  _249
REMARK   91  A    between atoms: _254  and  _256
REMARK   92  A    between atoms: _256  and  _257
REMARK   93  A    between atoms: _256  and  _259
REMARK   94  A    between atoms: _262  and  _264
REMARK   95  A    between atoms: _264  and  _265
REMARK   96  A    between atoms: _264  and  _267
REMARK   97  A    between atoms: _267  and  _268
REMARK   98  A    between atoms: _268  and  _269
REMARK   99  A    between atoms: _271  and  _273
REMARK  100  A    between atoms: _273  and  _274
REMARK  101  A    between atoms: _273  and  _276
REMARK  102  A    between atoms: _276  and  _277
REMARK  103  A    between atoms: _280  and  _282
REMARK  104  A    between atoms: _282  and  _283
REMARK  105  A    between atoms: _282  and  _285
REMARK  106  A    between atoms: _285  and  _286
REMARK  107  A    between atoms: _291  and  _292
REMARK  108  A    between atoms: _294  and  _296
REMARK  109  A    between atoms: _296  and  _297
REMARK  110  A    between atoms: _296  and  _299
REMARK  111  A    between atoms: _299  and  _300
REMARK  112  A    between atoms: _303  and  _305
REMARK  113  A    between atoms: _305  and  _306
REMARK  114  A    between atoms: _305  and  _308
REMARK  115  A    between atoms: _308  and  _309
REMARK  116  A    between atoms: _319  and  _321
REMARK  117  A    between atoms: _321  and  _322
REMARK  118  A    between atoms: _321  and  _324
REMARK  119  A    between atoms: _324  and  _325
REMARK  120  A    between atoms: _330  and  _332
REMARK  121  A    between atoms: _332  and  _333
REMARK  122  A    between atoms: _335  and  _337
REMARK  123  A    between atoms: _337  and  _338
REMARK  124  A    between atoms: _337  and  _340
REMARK  125  A    between atoms: _340  and  _341
REMARK  126  A    between atoms: _348  and  _349
REMARK  127  A    between atoms: _354  and  _356
REMARK  128  A    between atoms: _356  and  _357
REMARK  129  A    between atoms: _356  and  _359
REMARK  130  A    between atoms: _359  and  _360
REMARK  131  A    between atoms: _363  and  _365
REMARK  132  A    between atoms: _365  and  _366
REMARK  133  A    between atoms: _365  and  _368
REMARK  134  A    between atoms: _368  and  _369
REMARK  135  A    between atoms: _374  and  _375
REMARK  136  A    between atoms: _377  and  _379
REMARK  137  A    between atoms: _379  and  _380
REMARK  138  A    between atoms: _382  and  _384
REMARK  139  A    between atoms: _384  and  _385
REMARK  140  A    between atoms: _384  and  _387
REMARK  141  A    between atoms: _387  and  _388
REMARK  142  A    between atoms: _393  and  _395
REMARK  143  A    between atoms: _395  and  _396
REMARK  144  A    between atoms: _398  and  _400
REMARK  145  A    between atoms: _400  and  _401
REMARK  146  A    between atoms: _400  and  _403
REMARK  147  A    between atoms: _403  and  _404
REMARK  148  A    between atoms: _409  and  _410
REMARK  149  A    between atoms: _412  and  _414
REMARK  150  A    between atoms: _414  and  _415
REMARK  151  A    between atoms: _418  and  _420
REMARK  152  A    between atoms: _420  and  _421
REMARK  153  A    between atoms: _420  and  _423
REMARK  154  A    between atoms: _423  and  _424
REMARK  155  A    between atoms: _424  and  _425
REMARK  156  A    between atoms: _425  and  _426
REMARK  157  A    between atoms: _426  and  _427
REMARK  158  A    between atoms: _431  and  _433
REMARK  159  A    between atoms: _433  and  _434
REMARK  160  A    between atoms: _433  and  _436
REMARK  161  A    between atoms: _436  and  _437
REMARK  162  A    between atoms: _437  and  _438
REMARK  163  A    between atoms: _441  and  _443
REMARK  164  A    between atoms: _443  and  _444
REMARK  165  A    between atoms: _443  and  _446
REMARK  166  A    between atoms: _446  and  _447
REMARK  167  A    between atoms: _449  and  _451
REMARK  168  A    between atoms: _451  and  _452
REMARK  169  A    between atoms: _454  and  _456
REMARK  170  A    between atoms: _456  and  _457
REMARK  171  A    between atoms: _456  and  _459
REMARK  172  A    between atoms: _459  and  _460
REMARK  173  A    between atoms: _463  and  _465
REMARK  174  A    between atoms: _465  and  _466
REMARK  175  A    between atoms: _465  and  _468
REMARK  176  A    between atoms: _468  and  _469
REMARK  177  A    between atoms: _479  and  _481
REMARK  178  A    between atoms: _481  and  _482
REMARK  179  A    between atoms: _485  and  _487
REMARK  180  A    between atoms: _487  and  _488
REMARK  181  A    between atoms: _487  and  _490
REMARK  182  A    between atoms: _490  and  _491
REMARK  183  A    between atoms: _496  and  _497
REMARK  184  A    between atoms: _499  and  _501
REMARK  185  A    between atoms: _501  and  _502
REMARK  186  A    between atoms: _501  and  _504
REMARK  187  A    between atoms: _504  and  _505
REMARK  188  A    between atoms: _510  and  _511
REMARK  189  A    between atoms: _513  and  _515
REMARK  190  A    between atoms: _515  and  _516
REMARK  191  A    between atoms: _515  and  _518
REMARK  192  A    between atoms: _518  and  _519
REMARK  193  A    between atoms: _519  and  _520
REMARK  194  A    between atoms: _523  and  _525
REMARK  195  A    between atoms: _525  and  _526
REMARK  196  A    between atoms: _525  and  _528
REMARK  197  A    between atoms: _528  and  _529
REMARK  198  A    between atoms: _529  and  _530
REMARK  199  A    between atoms: _532  and  _534
REMARK  200  A    between atoms: _534  and  _535
REMARK  201  A    between atoms: _534  and  _537
REMARK  202  A    between atoms: _540  and  _542
REMARK  203  A    between atoms: _542  and  _543
REMARK  204  A    between atoms: _542  and  _545
REMARK  205  A    between atoms: _545  and  _546
REMARK  206  A    between atoms: _556  and  _558
REMARK  207  A    between atoms: _558  and  _559
REMARK  208  A    between atoms: _562  and  _564
REMARK  209  A    between atoms: _564  and  _565
REMARK  210  A    between atoms: _564  and  _567
REMARK  211  A    between atoms: _567  and  _568
REMARK  212  A    between atoms: _571  and  _573
REMARK  213  A    between atoms: _573  and  _574
REMARK  214  A    between atoms: _573  and  _576
REMARK  215  A    between atoms: _576  and  _577
REMARK                            x       y       z     vdW  Elec       q    Type
REMARK                         _______ _______ _______ _____ _____    ______ ____
ROOT
ATOM      1  O   HOH     1       4.578  -2.970 -21.011  0.00  0.00    +0.000 OA
ENDROOT
TORSDOF 0
REMARK  Name = ../refined-set-2016/3rm4/3rm4_pocket.pdb
REMARK  215 active torsions:
REMARK  status: ('A' for Active; 'I' for Inactive)
REMARK    1  A    between atoms: _1  and  _3
REMARK    2  A    between atoms: _3  and  _4
REMARK    3  A    between atoms: _3  and  _6
REMARK    4  A    between atoms: _6  and  _7
REMARK    5  A    between atoms: _12  and  _13
REMARK    6  A    between atoms: _15  and  _17
REMARK    7  A    between atoms: _17  and  _18
REMARK    8  A    between atoms: _17  and  _20
REMARK    9  A    between atoms: _20  and  _21
REMARK   10  A    between atoms: _24  and  _26
REMARK   11  A    between atoms: _26  and  _27
REMARK   12  A    between atoms: _26  and  _29
REMARK   13  A    between atoms: _29  and  _30
REMARK   14  A    between atoms: _40  and  _42
REMARK   15  A    between atoms: _42  and  _43
REMARK   16  A    between atoms: _42  and  _45
REMARK   17  A    between atoms: _45  and  _46
REMARK   18  A    between atoms: _46  and  _47
REMARK   19  A    between atoms: _47  and  _48
REMARK   20  A    between atoms: _57  and  _59
REMARK   21  A    between atoms: _59  and  _60
REMARK   22  A    between atoms: _59  and  _62
REMARK   23  A    between atoms: _62  and  _63
REMARK   24  A    between atoms: _66  and  _68
REMARK   25  A    between atoms: _68  and  _69
REMARK   26  A    between atoms: _72  and  _74
REMARK   27  A    between atoms: _74  and  _75
REMARK   28  A    between atoms: _74  and  _77
REMARK   29  A    between atoms: _77  and  _78
REMARK   30  A    between atoms: _84  and  _86
REMARK   31  A    between atoms: _86  and  _87
REMARK   32  A    between atoms: _90  and  _92
REMARK   33  A    between atoms: _92  and  _93
REMARK   34  A    between atoms: _92  and  _95
REMARK   35  A    between atoms: _95  and  _96
REMARK   36  A    between atoms: _99  and  _101
REMARK   37  A    between atoms: _101  and  _102
REMARK   38  A    between atoms: _104  and  _106
REMARK   39  A    between atoms: _106  and  _107
REMARK   40  A    between atoms: _109  and  _111
REMARK   41  A    between atoms: _111  and  _112
REMARK   42  A    between atoms: _111  and  _114
REMARK   43  A    between atoms: _114  and  _115
REMARK   44  A    between atoms: _125  and  _127
REMARK   45  A    between atoms: _127  and  _128
REMARK   46  A    between atoms: _127  and  _130
REMARK   47  A    between atoms: _130  and  _131
REMARK   48  A    between atoms: _136  and  _138
REMARK   49  A    between atoms: _138  and  _139
REMARK   50  A    between atoms: _138  and  _141
REMARK   51  A    between atoms: _141  and  _142
REMARK   52  A    between atoms: _145  and  _147
REMARK   53  A    between atoms: _147  and  _148
REMARK   54  A    between atoms: _147  and  _150
REMARK   55  A    between atoms: _150  and  _151
REMARK   56  A    between atoms: _157  and  _159
REMARK   57  A    between atoms: _159  and  _160
REMARK   58  A    between atoms: _159  and  _162
REMARK   59  A    between atoms: _162  and  _163
REMARK   60  A    between atoms: _166  and  _168
REMARK   61  A    between atoms: _168  and  _169
REMARK   62  A    between atoms: _168  and  _171
REMARK   63  A    between atoms: _171  and  _172
REMARK   64  A    between atoms: _182  and  _184
REMARK   65  A    between atoms: _184  and  _185
REMARK   66  A    between atoms: _184  and  _187
REMARK   67  A    between atoms: _187  and  _188
REMARK   68  A    between atoms: _188  and  _189
REMARK   69  A    between atoms: _192  and  _194
REMARK   70  A    between atoms: _194  and  _195
REMARK   71  A    between atoms: _194  and  _197
REMARK   72  A    between atoms: _197  and  _198
REMARK   73  A    between atoms: _203  and  _204
REMARK   74  A    between atoms: _206  and  _208
REMARK   75  A    between atoms: _208  and  _209
REMARK   76  A    between atoms: _208  and  _211
REMARK   77  A    between atoms: _211  and  _212
REMARK   78  A    between atoms: _212  and  _213
REMARK   79  A    between atoms: _213  and  _214
REMARK   80  A    between atoms: _223  and  _225
REMARK   81  A    between atoms: _225  and  _226
REMARK   82  A    between atoms: _229  and  _231
REMARK   83  A    between atoms: _231  and  _232
REMARK   84  A    between atoms: _235  and  _237
REMARK   85  A    between atoms: _237  and  _238
REMARK   86  A    between atoms: _237  and  _240
REMARK   87  A    between atoms: _243  and  _245
REMARK   88  A    between atoms: _245  and  _246
REMARK   89  A    between atoms: _245  and  _248
REMARK   90  A    between atoms: _248  and  _249
REMARK   91  A    between atoms: _254  and  _256
REMARK   92  A    between atoms: _256  and  _257
REMARK   93  A    between atoms: _256  and  _259
REMARK   94  A    between atoms: _262  and  _264
REMARK   95  A    between atoms: _264  and  _265
REMARK   96  A    between atoms: _264  and  _267
REMARK   97  A    between atoms: _267  and  _268
REMARK   98  A    between atoms: _268  and  _269
REMARK   99  A    between atoms: _271  and  _273
REMARK  100  A    between atoms: _273  and  _274
REMARK  101  A    between atoms: _273  and  _276
REMARK  102  A    between atoms: _276  and  _277
REMARK  103  A    between atoms: _280  and  _282
REMARK  104  A    between atoms: _282  and  _283
REMARK  105  A    between atoms: _282  and  _285
REMARK  106  A    between atoms: _285  and  _286
REMARK  107  A    between atoms: _291  and  _292
REMARK  108  A    between atoms: _294  and  _296
REMARK  109  A    between atoms: _296  and  _297
REMARK  110  A    between atoms: _296  and  _299
REMARK  111  A    between atoms: _299  and  _300
REMARK  112  A    between atoms: _303  and  _305
REMARK  113  A    between atoms: _305  and  _306
REMARK  114  A    between atoms: _305  and  _308
REMARK  115  A    between atoms: _308  and  _309
REMARK  116  A    between atoms: _319  and  _321
REMARK  117  A    between atoms: _321  and  _322
REMARK  118  A    between atoms: _321  and  _324
REMARK  119  A    between atoms: _324  and  _325
REMARK  120  A    between atoms: _330  and  _332
REMARK  121  A    between atoms: _332  and  _333
REMARK  122  A    between atoms: _335  and  _337
REMARK  123  A    between atoms: _337  and  _338
REMARK  124  A    between atoms: _337  and  _340
REMARK  125  A    between atoms: _340  and  _341
REMARK  126  A    between atoms: _348  and  _349
REMARK  127  A    between atoms: _354  and  _356
REMARK  128  A    between atoms: _356  and  _357
REMARK  129  A    between atoms: _356  and  _359
REMARK  130  A    between atoms: _359  and  _360
REMARK  131  A    between atoms: _363  and  _365
REMARK  132  A    between atoms: _365  and  _366
REMARK  133  A    between atoms: _365  and  _368
REMARK  134  A    between atoms: _368  and  _369
REMARK  135  A    between atoms: _374  and  _375
REMARK  136  A    between atoms: _377  and  _379
REMARK  137  A    between atoms: _379  and  _380
REMARK  138  A    between atoms: _382  and  _384
REMARK  139  A    between atoms: _384  and  _385
REMARK  140  A    between atoms: _384  and  _387
REMARK  141  A    between atoms: _387  and  _388
REMARK  142  A    between atoms: _393  and  _395
REMARK  143  A    between atoms: _395  and  _396
REMARK  144  A    between atoms: _398  and  _400
REMARK  145  A    between atoms: _400  and  _401
REMARK  146  A    between atoms: _400  and  _403
REMARK  147  A    between atoms: _403  and  _404
REMARK  148  A    between atoms: _409  and  _410
REMARK  149  A    between atoms: _412  and  _414
REMARK  150  A    between atoms: _414  and  _415
REMARK  151  A    between atoms: _418  and  _420
REMARK  152  A    between atoms: _420  and  _421
REMARK  153  A    between atoms: _420  and  _423
REMARK  154  A    between atoms: _423  and  _424
REMARK  155  A    between atoms: _424  and  _425
REMARK  156  A    between atoms: _425  and  _426
REMARK  157  A    between atoms: _426  and  _427
REMARK  158  A    between atoms: _431  and  _433
REMARK  159  A    between atoms: _433  and  _434
REMARK  160  A    between atoms: _433  and  _436
REMARK  161  A    between atoms: _436  and  _437
REMARK  162  A    between atoms: _437  and  _438
REMARK  163  A    between atoms: _441  and  _443
REMARK  164  A    between atoms: _443  and  _444
REMARK  165  A    between atoms: _443  and  _446
REMARK  166  A    between atoms: _446  and  _447
REMARK  167  A    between atoms: _449  and  _451
REMARK  168  A    between atoms: _451  and  _452
REMARK  169  A    between atoms: _454  and  _456
REMARK  170  A    between atoms: _456  and  _457
REMARK  171  A    between atoms: _456  and  _459
REMARK  172  A    between atoms: _459  and  _460
REMARK  173  A    between atoms: _463  and  _465
REMARK  174  A    between atoms: _465  and  _466
REMARK  175  A    between atoms: _465  and  _468
REMARK  176  A    between atoms: _468  and  _469
REMARK  177  A    between atoms: _479  and  _481
REMARK  178  A    between atoms: _481  and  _482
REMARK  179  A    between atoms: _485  and  _487
REMARK  180  A    between atoms: _487  and  _488
REMARK  181  A    between atoms: _487  and  _490
REMARK  182  A    between atoms: _490  and  _491
REMARK  183  A    between atoms: _496  and  _497
REMARK  184  A    between atoms: _499  and  _501
REMARK  185  A    between atoms: _501  and  _502
REMARK  186  A    between atoms: _501  and  _504
REMARK  187  A    between atoms: _504  and  _505
REMARK  188  A    between atoms: _510  and  _511
REMARK  189  A    between atoms: _513  and  _515
REMARK  190  A    between atoms: _515  and  _516
REMARK  191  A    between atoms: _515  and  _518
REMARK  192  A    between atoms: _518  and  _519
REMARK  193  A    between atoms: _519  and  _520
REMARK  194  A    between atoms: _523  and  _525
REMARK  195  A    between atoms: _525  and  _526
REMARK  196  A    between atoms: _525  and  _528
REMARK  197  A    between atoms: _528  and  _529
REMARK  198  A    between atoms: _529  and  _530
REMARK  199  A    between atoms: _532  and  _534
REMARK  200  A    between atoms: _534  and  _535
REMARK  201  A    between atoms: _534  and  _537
REMARK  202  A    between atoms: _540  and  _542
REMARK  203  A    between atoms: _542  and  _543
REMARK  204  A    between atoms: _542  and  _545
REMARK  205  A    between atoms: _545  and  _546
REMARK  206  A    between atoms: _556  and  _558
REMARK  207  A    between atoms: _558  and  _559
REMARK  208  A    between atoms: _562  and  _564
REMARK  209  A    between atoms: _564  and  _565
REMARK  210  A    between atoms: _564  and  _567
REMARK  211  A    between atoms: _567  and  _568
REMARK  212  A    between atoms: _571  and  _573
REMARK  213  A    between atoms: _573  and  _574
REMARK  214  A    between atoms: _573  and  _576
REMARK  215  A    between atoms: _576  and  _577
REMARK                            x       y       z     vdW  Elec       q    Type
REMARK                         _______ _______ _______ _____ _____    ______ ____
ROOT
ATOM      1  O   HOH     1       0.256   8.806 -12.787  0.00  0.00    +0.000 OA
ENDROOT
TORSDOF 0
REMARK  Name = ../refined-set-2016/3rm4/3rm4_pocket.pdb
REMARK  215 active torsions:
REMARK  status: ('A' for Active; 'I' for Inactive)
REMARK    1  A    between atoms: _1  and  _3
REMARK    2  A    between atoms: _3  and  _4
REMARK    3  A    between atoms: _3  and  _6
REMARK    4  A    between atoms: _6  and  _7
REMARK    5  A    between atoms: _12  and  _13
REMARK    6  A    between atoms: _15  and  _17
REMARK    7  A    between atoms: _17  and  _18
REMARK    8  A    between atoms: _17  and  _20
REMARK    9  A    between atoms: _20  and  _21
REMARK   10  A    between atoms: _24  and  _26
REMARK   11  A    between atoms: _26  and  _27
REMARK   12  A    between atoms: _26  and  _29
REMARK   13  A    between atoms: _29  and  _30
REMARK   14  A    between atoms: _40  and  _42
REMARK   15  A    between atoms: _42  and  _43
REMARK   16  A    between atoms: _42  and  _45
REMARK   17  A    between atoms: _45  and  _46
REMARK   18  A    between atoms: _46  and  _47
REMARK   19  A    between atoms: _47  and  _48
REMARK   20  A    between atoms: _57  and  _59
REMARK   21  A    between atoms: _59  and  _60
REMARK   22  A    between atoms: _59  and  _62
REMARK   23  A    between atoms: _62  and  _63
REMARK   24  A    between atoms: _66  and  _68
REMARK   25  A    between atoms: _68  and  _69
REMARK   26  A    between atoms: _72  and  _74
REMARK   27  A    between atoms: _74  and  _75
REMARK   28  A    between atoms: _74  and  _77
REMARK   29  A    between atoms: _77  and  _78
REMARK   30  A    between atoms: _84  and  _86
REMARK   31  A    between atoms: _86  and  _87
REMARK   32  A    between atoms: _90  and  _92
REMARK   33  A    between atoms: _92  and  _93
REMARK   34  A    between atoms: _92  and  _95
REMARK   35  A    between atoms: _95  and  _96
REMARK   36  A    between atoms: _99  and  _101
REMARK   37  A    between atoms: _101  and  _102
REMARK   38  A    between atoms: _104  and  _106
REMARK   39  A    between atoms: _106  and  _107
REMARK   40  A    between atoms: _109  and  _111
REMARK   41  A    between atoms: _111  and  _112
REMARK   42  A    between atoms: _111  and  _114
REMARK   43  A    between atoms: _114  and  _115
REMARK   44  A    between atoms: _125  and  _127
REMARK   45  A    between atoms: _127  and  _128
REMARK   46  A    between atoms: _127  and  _130
REMARK   47  A    between atoms: _130  and  _131
REMARK   48  A    between atoms: _136  and  _138
REMARK   49  A    between atoms: _138  and  _139
REMARK   50  A    between atoms: _138  and  _141
REMARK   51  A    between atoms: _141  and  _142
REMARK   52  A    between atoms: _145  and  _147
REMARK   53  A    between atoms: _147  and  _148
REMARK   54  A    between atoms: _147  and  _150
REMARK   55  A    between atoms: _150  and  _151
REMARK   56  A    between atoms: _157  and  _159
REMARK   57  A    between atoms: _159  and  _160
REMARK   58  A    between atoms: _159  and  _162
REMARK   59  A    between atoms: _162  and  _163
REMARK   60  A    between atoms: _166  and  _168
REMARK   61  A    between atoms: _168  and  _169
REMARK   62  A    between atoms: _168  and  _171
REMARK   63  A    between atoms: _171  and  _172
REMARK   64  A    between atoms: _182  and  _184
REMARK   65  A    between atoms: _184  and  _185
REMARK   66  A    between atoms: _184  and  _187
REMARK   67  A    between atoms: _187  and  _188
REMARK   68  A    between atoms: _188  and  _189
REMARK   69  A    between atoms: _192  and  _194
REMARK   70  A    between atoms: _194  and  _195
REMARK   71  A    between atoms: _194  and  _197
REMARK   72  A    between atoms: _197  and  _198
REMARK   73  A    between atoms: _203  and  _204
REMARK   74  A    between atoms: _206  and  _208
REMARK   75  A    between atoms: _208  and  _209
REMARK   76  A    between atoms: _208  and  _211
REMARK   77  A    between atoms: _211  and  _212
REMARK   78  A    between atoms: _212  and  _213
REMARK   79  A    between atoms: _213  and  _214
REMARK   80  A    between atoms: _223  and  _225
REMARK   81  A    between atoms: _225  and  _226
REMARK   82  A    between atoms: _229  and  _231
REMARK   83  A    between atoms: _231  and  _232
REMARK   84  A    between atoms: _235  and  _237
REMARK   85  A    between atoms: _237  and  _238
REMARK   86  A    between atoms: _237  and  _240
REMARK   87  A    between atoms: _243  and  _245
REMARK   88  A    between atoms: _245  and  _246
REMARK   89  A    between atoms: _245  and  _248
REMARK   90  A    between atoms: _248  and  _249
REMARK   91  A    between atoms: _254  and  _256
REMARK   92  A    between atoms: _256  and  _257
REMARK   93  A    between atoms: _256  and  _259
REMARK   94  A    between atoms: _262  and  _264
REMARK   95  A    between atoms: _264  and  _265
REMARK   96  A    between atoms: _264  and  _267
REMARK   97  A    between atoms: _267  and  _268
REMARK   98  A    between atoms: _268  and  _269
REMARK   99  A    between atoms: _271  and  _273
REMARK  100  A    between atoms: _273  and  _274
REMARK  101  A    between atoms: _273  and  _276
REMARK  102  A    between atoms: _276  and  _277
REMARK  103  A    between atoms: _280  and  _282
REMARK  104  A    between atoms: _282  and  _283
REMARK  105  A    between atoms: _282  and  _285
REMARK  106  A    between atoms: _285  and  _286
REMARK  107  A    between atoms: _291  and  _292
REMARK  108  A    between atoms: _294  and  _296
REMARK  109  A    between atoms: _296  and  _297
REMARK  110  A    between atoms: _296  and  _299
REMARK  111  A    between atoms: _299  and  _300
REMARK  112  A    between atoms: _303  and  _305
REMARK  113  A    between atoms: _305  and  _306
REMARK  114  A    between atoms: _305  and  _308
REMARK  115  A    between atoms: _308  and  _309
REMARK  116  A    between atoms: _319  and  _321
REMARK  117  A    between atoms: _321  and  _322
REMARK  118  A    between atoms: _321  and  _324
REMARK  119  A    between atoms: _324  and  _325
REMARK  120  A    between atoms: _330  and  _332
REMARK  121  A    between atoms: _332  and  _333
REMARK  122  A    between atoms: _335  and  _337
REMARK  123  A    between atoms: _337  and  _338
REMARK  124  A    between atoms: _337  and  _340
REMARK  125  A    between atoms: _340  and  _341
REMARK  126  A    between atoms: _348  and  _349
REMARK  127  A    between atoms: _354  and  _356
REMARK  128  A    between atoms: _356  and  _357
REMARK  129  A    between atoms: _356  and  _359
REMARK  130  A    between atoms: _359  and  _360
REMARK  131  A    between atoms: _363  and  _365
REMARK  132  A    between atoms: _365  and  _366
REMARK  133  A    between atoms: _365  and  _368
REMARK  134  A    between atoms: _368  and  _369
REMARK  135  A    between atoms: _374  and  _375
REMARK  136  A    between atoms: _377  and  _379
REMARK  137  A    between atoms: _379  and  _380
REMARK  138  A    between atoms: _382  and  _384
REMARK  139  A    between atoms: _384  and  _385
REMARK  140  A    between atoms: _384  and  _387
REMARK  141  A    between atoms: _387  and  _388
REMARK  142  A    between atoms: _393  and  _395
REMARK  143  A    between atoms: _395  and  _396
REMARK  144  A    between atoms: _398  and  _400
REMARK  145  A    between atoms: _400  and  _401
REMARK  146  A    between atoms: _400  and  _403
REMARK  147  A    between atoms: _403  and  _404
REMARK  148  A    between atoms: _409  and  _410
REMARK  149  A    between atoms: _412  and  _414
REMARK  150  A    between atoms: _414  and  _415
REMARK  151  A    between atoms: _418  and  _420
REMARK  152  A    between atoms: _420  and  _421
REMARK  153  A    between atoms: _420  and  _423
REMARK  154  A    between atoms: _423  and  _424
REMARK  155  A    between atoms: _424  and  _425
REMARK  156  A    between atoms: _425  and  _426
REMARK  157  A    between atoms: _426  and  _427
REMARK  158  A    between atoms: _431  and  _433
REMARK  159  A    between atoms: _433  and  _434
REMARK  160  A    between atoms: _433  and  _436
REMARK  161  A    between atoms: _436  and  _437
REMARK  162  A    between atoms: _437  and  _438
REMARK  163  A    between atoms: _441  and  _443
REMARK  164  A    between atoms: _443  and  _444
REMARK  165  A    between atoms: _443  and  _446
REMARK  166  A    between atoms: _446  and  _447
REMARK  167  A    between atoms: _449  and  _451
REMARK  168  A    between atoms: _451  and  _452
REMARK  169  A    between atoms: _454  and  _456
REMARK  170  A    between atoms: _456  and  _457
REMARK  171  A    between atoms: _456  and  _459
REMARK  172  A    between atoms: _459  and  _460
REMARK  173  A    between atoms: _463  and  _465
REMARK  174  A    between atoms: _465  and  _466
REMARK  175  A    between atoms: _465  and  _468
REMARK  176  A    between atoms: _468  and  _469
REMARK  177  A    between atoms: _479  and  _481
REMARK  178  A    between atoms: _481  and  _482
REMARK  179  A    between atoms: _485  and  _487
REMARK  180  A    between atoms: _487  and  _488
REMARK  181  A    between atoms: _487  and  _490
REMARK  182  A    between atoms: _490  and  _491
REMARK  183  A    between atoms: _496  and  _497
REMARK  184  A    between atoms: _499  and  _501
REMARK  185  A    between atoms: _501  and  _502
REMARK  186  A    between atoms: _501  and  _504
REMARK  187  A    between atoms: _504  and  _505
REMARK  188  A    between atoms: _510  and  _511
REMARK  189  A    between atoms: _513  and  _515
REMARK  190  A    between atoms: _515  and  _516
REMARK  191  A    between atoms: _515  and  _518
REMARK  192  A    between atoms: _518  and  _519
REMARK  193  A    between atoms: _519  and  _520
REMARK  194  A    between atoms: _523  and  _525
REMARK  195  A    between atoms: _525  and  _526
REMARK  196  A    between atoms: _525  and  _528
REMARK  197  A    between atoms: _528  and  _529
REMARK  198  A    between atoms: _529  and  _530
REMARK  199  A    between atoms: _532  and  _534
REMARK  200  A    between atoms: _534  and  _535
REMARK  201  A    between atoms: _534  and  _537
REMARK  202  A    between atoms: _540  and  _542
REMARK  203  A    between atoms: _542  and  _543
REMARK  204  A    between atoms: _542  and  _545
REMARK  205  A    between atoms: _545  and  _546
REMARK  206  A    between atoms: _556  and  _558
REMARK  207  A    between atoms: _558  and  _559
REMARK  208  A    between atoms: _562  and  _564
REMARK  209  A    between atoms: _564  and  _565
REMARK  210  A    between atoms: _564  and  _567
REMARK  211  A    between atoms: _567  and  _568
REMARK  212  A    between atoms: _571  and  _573
REMARK  213  A    between atoms: _573  and  _574
REMARK  214  A    between atoms: _573  and  _576
REMARK  215  A    between atoms: _576  and  _577
REMARK                            x       y       z     vdW  Elec       q    Type
REMARK                         _______ _______ _______ _____ _____    ______ ____
ROOT
ATOM      1  O   HOH     1       0.548  12.227 -11.024  0.00  0.00    +0.000 OA
ENDROOT
TORSDOF 0
REMARK  Name = ../refined-set-2016/3rm4/3rm4_pocket.pdb
REMARK  215 active torsions:
REMARK  status: ('A' for Active; 'I' for Inactive)
REMARK    1  A    between atoms: _1  and  _3
REMARK    2  A    between atoms: _3  and  _4
REMARK    3  A    between atoms: _3  and  _6
REMARK    4  A    between atoms: _6  and  _7
REMARK    5  A    between atoms: _12  and  _13
REMARK    6  A    between atoms: _15  and  _17
REMARK    7  A    between atoms: _17  and  _18
REMARK    8  A    between atoms: _17  and  _20
REMARK    9  A    between atoms: _20  and  _21
REMARK   10  A    between atoms: _24  and  _26
REMARK   11  A    between atoms: _26  and  _27
REMARK   12  A    between atoms: _26  and  _29
REMARK   13  A    between atoms: _29  and  _30
REMARK   14  A    between atoms: _40  and  _42
REMARK   15  A    between atoms: _42  and  _43
REMARK   16  A    between atoms: _42  and  _45
REMARK   17  A    between atoms: _45  and  _46
REMARK   18  A    between atoms: _46  and  _47
REMARK   19  A    between atoms: _47  and  _48
REMARK   20  A    between atoms: _57  and  _59
REMARK   21  A    between atoms: _59  and  _60
REMARK   22  A    between atoms: _59  and  _62
REMARK   23  A    between atoms: _62  and  _63
REMARK   24  A    between atoms: _66  and  _68
REMARK   25  A    between atoms: _68  and  _69
REMARK   26  A    between atoms: _72  and  _74
REMARK   27  A    between atoms: _74  and  _75
REMARK   28  A    between atoms: _74  and  _77
REMARK   29  A    between atoms: _77  and  _78
REMARK   30  A    between atoms: _84  and  _86
REMARK   31  A    between atoms: _86  and  _87
REMARK   32  A    between atoms: _90  and  _92
REMARK   33  A    between atoms: _92  and  _93
REMARK   34  A    between atoms: _92  and  _95
REMARK   35  A    between atoms: _95  and  _96
REMARK   36  A    between atoms: _99  and  _101
REMARK   37  A    between atoms: _101  and  _102
REMARK   38  A    between atoms: _104  and  _106
REMARK   39  A    between atoms: _106  and  _107
REMARK   40  A    between atoms: _109  and  _111
REMARK   41  A    between atoms: _111  and  _112
REMARK   42  A    between atoms: _111  and  _114
REMARK   43  A    between atoms: _114  and  _115
REMARK   44  A    between atoms: _125  and  _127
REMARK   45  A    between atoms: _127  and  _128
REMARK   46  A    between atoms: _127  and  _130
REMARK   47  A    between atoms: _130  and  _131
REMARK   48  A    between atoms: _136  and  _138
REMARK   49  A    between atoms: _138  and  _139
REMARK   50  A    between atoms: _138  and  _141
REMARK   51  A    between atoms: _141  and  _142
REMARK   52  A    between atoms: _145  and  _147
REMARK   53  A    between atoms: _147  and  _148
REMARK   54  A    between atoms: _147  and  _150
REMARK   55  A    between atoms: _150  and  _151
REMARK   56  A    between atoms: _157  and  _159
REMARK   57  A    between atoms: _159  and  _160
REMARK   58  A    between atoms: _159  and  _162
REMARK   59  A    between atoms: _162  and  _163
REMARK   60  A    between atoms: _166  and  _168
REMARK   61  A    between atoms: _168  and  _169
REMARK   62  A    between atoms: _168  and  _171
REMARK   63  A    between atoms: _171  and  _172
REMARK   64  A    between atoms: _182  and  _184
REMARK   65  A    between atoms: _184  and  _185
REMARK   66  A    between atoms: _184  and  _187
REMARK   67  A    between atoms: _187  and  _188
REMARK   68  A    between atoms: _188  and  _189
REMARK   69  A    between atoms: _192  and  _194
REMARK   70  A    between atoms: _194  and  _195
REMARK   71  A    between atoms: _194  and  _197
REMARK   72  A    between atoms: _197  and  _198
REMARK   73  A    between atoms: _203  and  _204
REMARK   74  A    between atoms: _206  and  _208
REMARK   75  A    between atoms: _208  and  _209
REMARK   76  A    between atoms: _208  and  _211
REMARK   77  A    between atoms: _211  and  _212
REMARK   78  A    between atoms: _212  and  _213
REMARK   79  A    between atoms: _213  and  _214
REMARK   80  A    between atoms: _223  and  _225
REMARK   81  A    between atoms: _225  and  _226
REMARK   82  A    between atoms: _229  and  _231
REMARK   83  A    between atoms: _231  and  _232
REMARK   84  A    between atoms: _235  and  _237
REMARK   85  A    between atoms: _237  and  _238
REMARK   86  A    between atoms: _237  and  _240
REMARK   87  A    between atoms: _243  and  _245
REMARK   88  A    between atoms: _245  and  _246
REMARK   89  A    between atoms: _245  and  _248
REMARK   90  A    between atoms: _248  and  _249
REMARK   91  A    between atoms: _254  and  _256
REMARK   92  A    between atoms: _256  and  _257
REMARK   93  A    between atoms: _256  and  _259
REMARK   94  A    between atoms: _262  and  _264
REMARK   95  A    between atoms: _264  and  _265
REMARK   96  A    between atoms: _264  and  _267
REMARK   97  A    between atoms: _267  and  _268
REMARK   98  A    between atoms: _268  and  _269
REMARK   99  A    between atoms: _271  and  _273
REMARK  100  A    between atoms: _273  and  _274
REMARK  101  A    between atoms: _273  and  _276
REMARK  102  A    between atoms: _276  and  _277
REMARK  103  A    between atoms: _280  and  _282
REMARK  104  A    between atoms: _282  and  _283
REMARK  105  A    between atoms: _282  and  _285
REMARK  106  A    between atoms: _285  and  _286
REMARK  107  A    between atoms: _291  and  _292
REMARK  108  A    between atoms: _294  and  _296
REMARK  109  A    between atoms: _296  and  _297
REMARK  110  A    between atoms: _296  and  _299
REMARK  111  A    between atoms: _299  and  _300
REMARK  112  A    between atoms: _303  and  _305
REMARK  113  A    between atoms: _305  and  _306
REMARK  114  A    between atoms: _305  and  _308
REMARK  115  A    between atoms: _308  and  _309
REMARK  116  A    between atoms: _319  and  _321
REMARK  117  A    between atoms: _321  and  _322
REMARK  118  A    between atoms: _321  and  _324
REMARK  119  A    between atoms: _324  and  _325
REMARK  120  A    between atoms: _330  and  _332
REMARK  121  A    between atoms: _332  and  _333
REMARK  122  A    between atoms: _335  and  _337
REMARK  123  A    between atoms: _337  and  _338
REMARK  124  A    between atoms: _337  and  _340
REMARK  125  A    between atoms: _340  and  _341
REMARK  126  A    between atoms: _348  and  _349
REMARK  127  A    between atoms: _354  and  _356
REMARK  128  A    between atoms: _356  and  _357
REMARK  129  A    between atoms: _356  and  _359
REMARK  130  A    between atoms: _359  and  _360
REMARK  131  A    between atoms: _363  and  _365
REMARK  132  A    between atoms: _365  and  _366
REMARK  133  A    between atoms: _365  and  _368
REMARK  134  A    between atoms: _368  and  _369
REMARK  135  A    between atoms: _374  and  _375
REMARK  136  A    between atoms: _377  and  _379
REMARK  137  A    between atoms: _379  and  _380
REMARK  138  A    between atoms: _382  and  _384
REMARK  139  A    between atoms: _384  and  _385
REMARK  140  A    between atoms: _384  and  _387
REMARK  141  A    between atoms: _387  and  _388
REMARK  142  A    between atoms: _393  and  _395
REMARK  143  A    between atoms: _395  and  _396
REMARK  144  A    between atoms: _398  and  _400
REMARK  145  A    between atoms: _400  and  _401
REMARK  146  A    between atoms: _400  and  _403
REMARK  147  A    between atoms: _403  and  _404
REMARK  148  A    between atoms: _409  and  _410
REMARK  149  A    between atoms: _412  and  _414
REMARK  150  A    between atoms: _414  and  _415
REMARK  151  A    between atoms: _418  and  _420
REMARK  152  A    between atoms: _420  and  _421
REMARK  153  A    between atoms: _420  and  _423
REMARK  154  A    between atoms: _423  and  _424
REMARK  155  A    between atoms: _424  and  _425
REMARK  156  A    between atoms: _425  and  _426
REMARK  157  A    between atoms: _426  and  _427
REMARK  158  A    between atoms: _431  and  _433
REMARK  159  A    between atoms: _433  and  _434
REMARK  160  A    between atoms: _433  and  _436
REMARK  161  A    between atoms: _436  and  _437
REMARK  162  A    between atoms: _437  and  _438
REMARK  163  A    between atoms: _441  and  _443
REMARK  164  A    between atoms: _443  and  _444
REMARK  165  A    between atoms: _443  and  _446
REMARK  166  A    between atoms: _446  and  _447
REMARK  167  A    between atoms: _449  and  _451
REMARK  168  A    between atoms: _451  and  _452
REMARK  169  A    between atoms: _454  and  _456
REMARK  170  A    between atoms: _456  and  _457
REMARK  171  A    between atoms: _456  and  _459
REMARK  172  A    between atoms: _459  and  _460
REMARK  173  A    between atoms: _463  and  _465
REMARK  174  A    between atoms: _465  and  _466
REMARK  175  A    between atoms: _465  and  _468
REMARK  176  A    between atoms: _468  and  _469
REMARK  177  A    between atoms: _479  and  _481
REMARK  178  A    between atoms: _481  and  _482
REMARK  179  A    between atoms: _485  and  _487
REMARK  180  A    between atoms: _487  and  _488
REMARK  181  A    between atoms: _487  and  _490
REMARK  182  A    between atoms: _490  and  _491
REMARK  183  A    between atoms: _496  and  _497
REMARK  184  A    between atoms: _499  and  _501
REMARK  185  A    between atoms: _501  and  _502
REMARK  186  A    between atoms: _501  and  _504
REMARK  187  A    between atoms: _504  and  _505
REMARK  188  A    between atoms: _510  and  _511
REMARK  189  A    between atoms: _513  and  _515
REMARK  190  A    between atoms: _515  and  _516
REMARK  191  A    between atoms: _515  and  _518
REMARK  192  A    between atoms: _518  and  _519
REMARK  193  A    between atoms: _519  and  _520
REMARK  194  A    between atoms: _523  and  _525
REMARK  195  A    between atoms: _525  and  _526
REMARK  196  A    between atoms: _525  and  _528
REMARK  197  A    between atoms: _528  and  _529
REMARK  198  A    between atoms: _529  and  _530
REMARK  199  A    between atoms: _532  and  _534
REMARK  200  A    between atoms: _534  and  _535
REMARK  201  A    between atoms: _534  and  _537
REMARK  202  A    between atoms: _540  and  _542
REMARK  203  A    between atoms: _542  and  _543
REMARK  204  A    between atoms: _542  and  _545
REMARK  205  A    between atoms: _545  and  _546
REMARK  206  A    between atoms: _556  and  _558
REMARK  207  A    between atoms: _558  and  _559
REMARK  208  A    between atoms: _562  and  _564
REMARK  209  A    between atoms: _564  and  _565
REMARK  210  A    between atoms: _564  and  _567
REMARK  211  A    between atoms: _567  and  _568
REMARK  212  A    between atoms: _571  and  _573
REMARK  213  A    between atoms: _573  and  _574
REMARK  214  A    between atoms: _573  and  _576
REMARK  215  A    between atoms: _576  and  _577
REMARK                            x       y       z     vdW  Elec       q    Type
REMARK                         _______ _______ _______ _____ _____    ______ ____
ROOT
ATOM      1  O   HOH     1      11.334   5.412 -15.794  0.00  0.00    +0.000 OA
ENDROOT
TORSDOF 0
REMARK  Name = ../refined-set-2016/3rm4/3rm4_pocket.pdb
REMARK  215 active torsions:
REMARK  status: ('A' for Active; 'I' for Inactive)
REMARK    1  A    between atoms: _1  and  _3
REMARK    2  A    between atoms: _3  and  _4
REMARK    3  A    between atoms: _3  and  _6
REMARK    4  A    between atoms: _6  and  _7
REMARK    5  A    between atoms: _12  and  _13
REMARK    6  A    between atoms: _15  and  _17
REMARK    7  A    between atoms: _17  and  _18
REMARK    8  A    between atoms: _17  and  _20
REMARK    9  A    between atoms: _20  and  _21
REMARK   10  A    between atoms: _24  and  _26
REMARK   11  A    between atoms: _26  and  _27
REMARK   12  A    between atoms: _26  and  _29
REMARK   13  A    between atoms: _29  and  _30
REMARK   14  A    between atoms: _40  and  _42
REMARK   15  A    between atoms: _42  and  _43
REMARK   16  A    between atoms: _42  and  _45
REMARK   17  A    between atoms: _45  and  _46
REMARK   18  A    between atoms: _46  and  _47
REMARK   19  A    between atoms: _47  and  _48
REMARK   20  A    between atoms: _57  and  _59
REMARK   21  A    between atoms: _59  and  _60
REMARK   22  A    between atoms: _59  and  _62
REMARK   23  A    between atoms: _62  and  _63
REMARK   24  A    between atoms: _66  and  _68
REMARK   25  A    between atoms: _68  and  _69
REMARK   26  A    between atoms: _72  and  _74
REMARK   27  A    between atoms: _74  and  _75
REMARK   28  A    between atoms: _74  and  _77
REMARK   29  A    between atoms: _77  and  _78
REMARK   30  A    between atoms: _84  and  _86
REMARK   31  A    between atoms: _86  and  _87
REMARK   32  A    between atoms: _90  and  _92
REMARK   33  A    between atoms: _92  and  _93
REMARK   34  A    between atoms: _92  and  _95
REMARK   35  A    between atoms: _95  and  _96
REMARK   36  A    between atoms: _99  and  _101
REMARK   37  A    between atoms: _101  and  _102
REMARK   38  A    between atoms: _104  and  _106
REMARK   39  A    between atoms: _106  and  _107
REMARK   40  A    between atoms: _109  and  _111
REMARK   41  A    between atoms: _111  and  _112
REMARK   42  A    between atoms: _111  and  _114
REMARK   43  A    between atoms: _114  and  _115
REMARK   44  A    between atoms: _125  and  _127
REMARK   45  A    between atoms: _127  and  _128
REMARK   46  A    between atoms: _127  and  _130
REMARK   47  A    between atoms: _130  and  _131
REMARK   48  A    between atoms: _136  and  _138
REMARK   49  A    between atoms: _138  and  _139
REMARK   50  A    between atoms: _138  and  _141
REMARK   51  A    between atoms: _141  and  _142
REMARK   52  A    between atoms: _145  and  _147
REMARK   53  A    between atoms: _147  and  _148
REMARK   54  A    between atoms: _147  and  _150
REMARK   55  A    between atoms: _150  and  _151
REMARK   56  A    between atoms: _157  and  _159
REMARK   57  A    between atoms: _159  and  _160
REMARK   58  A    between atoms: _159  and  _162
REMARK   59  A    between atoms: _162  and  _163
REMARK   60  A    between atoms: _166  and  _168
REMARK   61  A    between atoms: _168  and  _169
REMARK   62  A    between atoms: _168  and  _171
REMARK   63  A    between atoms: _171  and  _172
REMARK   64  A    between atoms: _182  and  _184
REMARK   65  A    between atoms: _184  and  _185
REMARK   66  A    between atoms: _184  and  _187
REMARK   67  A    between atoms: _187  and  _188
REMARK   68  A    between atoms: _188  and  _189
REMARK   69  A    between atoms: _192  and  _194
REMARK   70  A    between atoms: _194  and  _195
REMARK   71  A    between atoms: _194  and  _197
REMARK   72  A    between atoms: _197  and  _198
REMARK   73  A    between atoms: _203  and  _204
REMARK   74  A    between atoms: _206  and  _208
REMARK   75  A    between atoms: _208  and  _209
REMARK   76  A    between atoms: _208  and  _211
REMARK   77  A    between atoms: _211  and  _212
REMARK   78  A    between atoms: _212  and  _213
REMARK   79  A    between atoms: _213  and  _214
REMARK   80  A    between atoms: _223  and  _225
REMARK   81  A    between atoms: _225  and  _226
REMARK   82  A    between atoms: _229  and  _231
REMARK   83  A    between atoms: _231  and  _232
REMARK   84  A    between atoms: _235  and  _237
REMARK   85  A    between atoms: _237  and  _238
REMARK   86  A    between atoms: _237  and  _240
REMARK   87  A    between atoms: _243  and  _245
REMARK   88  A    between atoms: _245  and  _246
REMARK   89  A    between atoms: _245  and  _248
REMARK   90  A    between atoms: _248  and  _249
REMARK   91  A    between atoms: _254  and  _256
REMARK   92  A    between atoms: _256  and  _257
REMARK   93  A    between atoms: _256  and  _259
REMARK   94  A    between atoms: _262  and  _264
REMARK   95  A    between atoms: _264  and  _265
REMARK   96  A    between atoms: _264  and  _267
REMARK   97  A    between atoms: _267  and  _268
REMARK   98  A    between atoms: _268  and  _269
REMARK   99  A    between atoms: _271  and  _273
REMARK  100  A    between atoms: _273  and  _274
REMARK  101  A    between atoms: _273  and  _276
REMARK  102  A    between atoms: _276  and  _277
REMARK  103  A    between atoms: _280  and  _282
REMARK  104  A    between atoms: _282  and  _283
REMARK  105  A    between atoms: _282  and  _285
REMARK  106  A    between atoms: _285  and  _286
REMARK  107  A    between atoms: _291  and  _292
REMARK  108  A    between atoms: _294  and  _296
REMARK  109  A    between atoms: _296  and  _297
REMARK  110  A    between atoms: _296  and  _299
REMARK  111  A    between atoms: _299  and  _300
REMARK  112  A    between atoms: _303  and  _305
REMARK  113  A    between atoms: _305  and  _306
REMARK  114  A    between atoms: _305  and  _308
REMARK  115  A    between atoms: _308  and  _309
REMARK  116  A    between atoms: _319  and  _321
REMARK  117  A    between atoms: _321  and  _322
REMARK  118  A    between atoms: _321  and  _324
REMARK  119  A    between atoms: _324  and  _325
REMARK  120  A    between atoms: _330  and  _332
REMARK  121  A    between atoms: _332  and  _333
REMARK  122  A    between atoms: _335  and  _337
REMARK  123  A    between atoms: _337  and  _338
REMARK  124  A    between atoms: _337  and  _340
REMARK  125  A    between atoms: _340  and  _341
REMARK  126  A    between atoms: _348  and  _349
REMARK  127  A    between atoms: _354  and  _356
REMARK  128  A    between atoms: _356  and  _357
REMARK  129  A    between atoms: _356  and  _359
REMARK  130  A    between atoms: _359  and  _360
REMARK  131  A    between atoms: _363  and  _365
REMARK  132  A    between atoms: _365  and  _366
REMARK  133  A    between atoms: _365  and  _368
REMARK  134  A    between atoms: _368  and  _369
REMARK  135  A    between atoms: _374  and  _375
REMARK  136  A    between atoms: _377  and  _379
REMARK  137  A    between atoms: _379  and  _380
REMARK  138  A    between atoms: _382  and  _384
REMARK  139  A    between atoms: _384  and  _385
REMARK  140  A    between atoms: _384  and  _387
REMARK  141  A    between atoms: _387  and  _388
REMARK  142  A    between atoms: _393  and  _395
REMARK  143  A    between atoms: _395  and  _396
REMARK  144  A    between atoms: _398  and  _400
REMARK  145  A    between atoms: _400  and  _401
REMARK  146  A    between atoms: _400  and  _403
REMARK  147  A    between atoms: _403  and  _404
REMARK  148  A    between atoms: _409  and  _410
REMARK  149  A    between atoms: _412  and  _414
REMARK  150  A    between atoms: _414  and  _415
REMARK  151  A    between atoms: _418  and  _420
REMARK  152  A    between atoms: _420  and  _421
REMARK  153  A    between atoms: _420  and  _423
REMARK  154  A    between atoms: _423  and  _424
REMARK  155  A    between atoms: _424  and  _425
REMARK  156  A    between atoms: _425  and  _426
REMARK  157  A    between atoms: _426  and  _427
REMARK  158  A    between atoms: _431  and  _433
REMARK  159  A    between atoms: _433  and  _434
REMARK  160  A    between atoms: _433  and  _436
REMARK  161  A    between atoms: _436  and  _437
REMARK  162  A    between atoms: _437  and  _438
REMARK  163  A    between atoms: _441  and  _443
REMARK  164  A    between atoms: _443  and  _444
REMARK  165  A    between atoms: _443  and  _446
REMARK  166  A    between atoms: _446  and  _447
REMARK  167  A    between atoms: _449  and  _451
REMARK  168  A    between atoms: _451  and  _452
REMARK  169  A    between atoms: _454  and  _456
REMARK  170  A    between atoms: _456  and  _457
REMARK  171  A    between atoms: _456  and  _459
REMARK  172  A    between atoms: _459  and  _460
REMARK  173  A    between atoms: _463  and  _465
REMARK  174  A    between atoms: _465  and  _466
REMARK  175  A    between atoms: _465  and  _468
REMARK  176  A    between atoms: _468  and  _469
REMARK  177  A    between atoms: _479  and  _481
REMARK  178  A    between atoms: _481  and  _482
REMARK  179  A    between atoms: _485  and  _487
REMARK  180  A    between atoms: _487  and  _488
REMARK  181  A    between atoms: _487  and  _490
REMARK  182  A    between atoms: _490  and  _491
REMARK  183  A    between atoms: _496  and  _497
REMARK  184  A    between atoms: _499  and  _501
REMARK  185  A    between atoms: _501  and  _502
REMARK  186  A    between atoms: _501  and  _504
REMARK  187  A    between atoms: _504  and  _505
REMARK  188  A    between atoms: _510  and  _511
REMARK  189  A    between atoms: _513  and  _515
REMARK  190  A    between atoms: _515  and  _516
REMARK  191  A    between atoms: _515  and  _518
REMARK  192  A    between atoms: _518  and  _519
REMARK  193  A    between atoms: _519  and  _520
REMARK  194  A    between atoms: _523  and  _525
REMARK  195  A    between atoms: _525  and  _526
REMARK  196  A    between atoms: _525  and  _528
REMARK  197  A    between atoms: _528  and  _529
REMARK  198  A    between atoms: _529  and  _530
REMARK  199  A    between atoms: _532  and  _534
REMARK  200  A    between atoms: _534  and  _535
REMARK  201  A    between atoms: _534  and  _537
REMARK  202  A    between atoms: _540  and  _542
REMARK  203  A    between atoms: _542  and  _543
REMARK  204  A    between atoms: _542  and  _545
REMARK  205  A    between atoms: _545  and  _546
REMARK  206  A    between atoms: _556  and  _558
REMARK  207  A    between atoms: _558  and  _559
REMARK  208  A    between atoms: _562  and  _564
REMARK  209  A    between atoms: _564  and  _565
REMARK  210  A    between atoms: _564  and  _567
REMARK  211  A    between atoms: _567  and  _568
REMARK  212  A    between atoms: _571  and  _573
REMARK  213  A    between atoms: _573  and  _574
REMARK  214  A    between atoms: _573  and  _576
REMARK  215  A    between atoms: _576  and  _577
REMARK                            x       y       z     vdW  Elec       q    Type
REMARK                         _______ _______ _______ _____ _____    ______ ____
ROOT
ATOM      1  O   HOH     1       3.517  -1.187 -18.908  0.00  0.00    +0.000 OA
ENDROOT
TORSDOF 0
REMARK  Name = ../refined-set-2016/3rm4/3rm4_pocket.pdb
REMARK  215 active torsions:
REMARK  status: ('A' for Active; 'I' for Inactive)
REMARK    1  A    between atoms: _1  and  _3
REMARK    2  A    between atoms: _3  and  _4
REMARK    3  A    between atoms: _3  and  _6
REMARK    4  A    between atoms: _6  and  _7
REMARK    5  A    between atoms: _12  and  _13
REMARK    6  A    between atoms: _15  and  _17
REMARK    7  A    between atoms: _17  and  _18
REMARK    8  A    between atoms: _17  and  _20
REMARK    9  A    between atoms: _20  and  _21
REMARK   10  A    between atoms: _24  and  _26
REMARK   11  A    between atoms: _26  and  _27
REMARK   12  A    between atoms: _26  and  _29
REMARK   13  A    between atoms: _29  and  _30
REMARK   14  A    between atoms: _40  and  _42
REMARK   15  A    between atoms: _42  and  _43
REMARK   16  A    between atoms: _42  and  _45
REMARK   17  A    between atoms: _45  and  _46
REMARK   18  A    between atoms: _46  and  _47
REMARK   19  A    between atoms: _47  and  _48
REMARK   20  A    between atoms: _57  and  _59
REMARK   21  A    between atoms: _59  and  _60
REMARK   22  A    between atoms: _59  and  _62
REMARK   23  A    between atoms: _62  and  _63
REMARK   24  A    between atoms: _66  and  _68
REMARK   25  A    between atoms: _68  and  _69
REMARK   26  A    between atoms: _72  and  _74
REMARK   27  A    between atoms: _74  and  _75
REMARK   28  A    between atoms: _74  and  _77
REMARK   29  A    between atoms: _77  and  _78
REMARK   30  A    between atoms: _84  and  _86
REMARK   31  A    between atoms: _86  and  _87
REMARK   32  A    between atoms: _90  and  _92
REMARK   33  A    between atoms: _92  and  _93
REMARK   34  A    between atoms: _92  and  _95
REMARK   35  A    between atoms: _95  and  _96
REMARK   36  A    between atoms: _99  and  _101
REMARK   37  A    between atoms: _101  and  _102
REMARK   38  A    between atoms: _104  and  _106
REMARK   39  A    between atoms: _106  and  _107
REMARK   40  A    between atoms: _109  and  _111
REMARK   41  A    between atoms: _111  and  _112
REMARK   42  A    between atoms: _111  and  _114
REMARK   43  A    between atoms: _114  and  _115
REMARK   44  A    between atoms: _125  and  _127
REMARK   45  A    between atoms: _127  and  _128
REMARK   46  A    between atoms: _127  and  _130
REMARK   47  A    between atoms: _130  and  _131
REMARK   48  A    between atoms: _136  and  _138
REMARK   49  A    between atoms: _138  and  _139
REMARK   50  A    between atoms: _138  and  _141
REMARK   51  A    between atoms: _141  and  _142
REMARK   52  A    between atoms: _145  and  _147
REMARK   53  A    between atoms: _147  and  _148
REMARK   54  A    between atoms: _147  and  _150
REMARK   55  A    between atoms: _150  and  _151
REMARK   56  A    between atoms: _157  and  _159
REMARK   57  A    between atoms: _159  and  _160
REMARK   58  A    between atoms: _159  and  _162
REMARK   59  A    between atoms: _162  and  _163
REMARK   60  A    between atoms: _166  and  _168
REMARK   61  A    between atoms: _168  and  _169
REMARK   62  A    between atoms: _168  and  _171
REMARK   63  A    between atoms: _171  and  _172
REMARK   64  A    between atoms: _182  and  _184
REMARK   65  A    between atoms: _184  and  _185
REMARK   66  A    between atoms: _184  and  _187
REMARK   67  A    between atoms: _187  and  _188
REMARK   68  A    between atoms: _188  and  _189
REMARK   69  A    between atoms: _192  and  _194
REMARK   70  A    between atoms: _194  and  _195
REMARK   71  A    between atoms: _194  and  _197
REMARK   72  A    between atoms: _197  and  _198
REMARK   73  A    between atoms: _203  and  _204
REMARK   74  A    between atoms: _206  and  _208
REMARK   75  A    between atoms: _208  and  _209
REMARK   76  A    between atoms: _208  and  _211
REMARK   77  A    between atoms: _211  and  _212
REMARK   78  A    between atoms: _212  and  _213
REMARK   79  A    between atoms: _213  and  _214
REMARK   80  A    between atoms: _223  and  _225
REMARK   81  A    between atoms: _225  and  _226
REMARK   82  A    between atoms: _229  and  _231
REMARK   83  A    between atoms: _231  and  _232
REMARK   84  A    between atoms: _235  and  _237
REMARK   85  A    between atoms: _237  and  _238
REMARK   86  A    between atoms: _237  and  _240
REMARK   87  A    between atoms: _243  and  _245
REMARK   88  A    between atoms: _245  and  _246
REMARK   89  A    between atoms: _245  and  _248
REMARK   90  A    between atoms: _248  and  _249
REMARK   91  A    between atoms: _254  and  _256
REMARK   92  A    between atoms: _256  and  _257
REMARK   93  A    between atoms: _256  and  _259
REMARK   94  A    between atoms: _262  and  _264
REMARK   95  A    between atoms: _264  and  _265
REMARK   96  A    between atoms: _264  and  _267
REMARK   97  A    between atoms: _267  and  _268
REMARK   98  A    between atoms: _268  and  _269
REMARK   99  A    between atoms: _271  and  _273
REMARK  100  A    between atoms: _273  and  _274
REMARK  101  A    between atoms: _273  and  _276
REMARK  102  A    between atoms: _276  and  _277
REMARK  103  A    between atoms: _280  and  _282
REMARK  104  A    between atoms: _282  and  _283
REMARK  105  A    between atoms: _282  and  _285
REMARK  106  A    between atoms: _285  and  _286
REMARK  107  A    between atoms: _291  and  _292
REMARK  108  A    between atoms: _294  and  _296
REMARK  109  A    between atoms: _296  and  _297
REMARK  110  A    between atoms: _296  and  _299
REMARK  111  A    between atoms: _299  and  _300
REMARK  112  A    between atoms: _303  and  _305
REMARK  113  A    between atoms: _305  and  _306
REMARK  114  A    between atoms: _305  and  _308
REMARK  115  A    between atoms: _308  and  _309
REMARK  116  A    between atoms: _319  and  _321
REMARK  117  A    between atoms: _321  and  _322
REMARK  118  A    between atoms: _321  and  _324
REMARK  119  A    between atoms: _324  and  _325
REMARK  120  A    between atoms: _330  and  _332
REMARK  121  A    between atoms: _332  and  _333
REMARK  122  A    between atoms: _335  and  _337
REMARK  123  A    between atoms: _337  and  _338
REMARK  124  A    between atoms: _337  and  _340
REMARK  125  A    between atoms: _340  and  _341
REMARK  126  A    between atoms: _348  and  _349
REMARK  127  A    between atoms: _354  and  _356
REMARK  128  A    between atoms: _356  and  _357
REMARK  129  A    between atoms: _356  and  _359
REMARK  130  A    between atoms: _359  and  _360
REMARK  131  A    between atoms: _363  and  _365
REMARK  132  A    between atoms: _365  and  _366
REMARK  133  A    between atoms: _365  and  _368
REMARK  134  A    between atoms: _368  and  _369
REMARK  135  A    between atoms: _374  and  _375
REMARK  136  A    between atoms: _377  and  _379
REMARK  137  A    between atoms: _379  and  _380
REMARK  138  A    between atoms: _382  and  _384
REMARK  139  A    between atoms: _384  and  _385
REMARK  140  A    between atoms: _384  and  _387
REMARK  141  A    between atoms: _387  and  _388
REMARK  142  A    between atoms: _393  and  _395
REMARK  143  A    between atoms: _395  and  _396
REMARK  144  A    between atoms: _398  and  _400
REMARK  145  A    between atoms: _400  and  _401
REMARK  146  A    between atoms: _400  and  _403
REMARK  147  A    between atoms: _403  and  _404
REMARK  148  A    between atoms: _409  and  _410
REMARK  149  A    between atoms: _412  and  _414
REMARK  150  A    between atoms: _414  and  _415
REMARK  151  A    between atoms: _418  and  _420
REMARK  152  A    between atoms: _420  and  _421
REMARK  153  A    between atoms: _420  and  _423
REMARK  154  A    between atoms: _423  and  _424
REMARK  155  A    between atoms: _424  and  _425
REMARK  156  A    between atoms: _425  and  _426
REMARK  157  A    between atoms: _426  and  _427
REMARK  158  A    between atoms: _431  and  _433
REMARK  159  A    between atoms: _433  and  _434
REMARK  160  A    between atoms: _433  and  _436
REMARK  161  A    between atoms: _436  and  _437
REMARK  162  A    between atoms: _437  and  _438
REMARK  163  A    between atoms: _441  and  _443
REMARK  164  A    between atoms: _443  and  _444
REMARK  165  A    between atoms: _443  and  _446
REMARK  166  A    between atoms: _446  and  _447
REMARK  167  A    between atoms: _449  and  _451
REMARK  168  A    between atoms: _451  and  _452
REMARK  169  A    between atoms: _454  and  _456
REMARK  170  A    between atoms: _456  and  _457
REMARK  171  A    between atoms: _456  and  _459
REMARK  172  A    between atoms: _459  and  _460
REMARK  173  A    between atoms: _463  and  _465
REMARK  174  A    between atoms: _465  and  _466
REMARK  175  A    between atoms: _465  and  _468
REMARK  176  A    between atoms: _468  and  _469
REMARK  177  A    between atoms: _479  and  _481
REMARK  178  A    between atoms: _481  and  _482
REMARK  179  A    between atoms: _485  and  _487
REMARK  180  A    between atoms: _487  and  _488
REMARK  181  A    between atoms: _487  and  _490
REMARK  182  A    between atoms: _490  and  _491
REMARK  183  A    between atoms: _496  and  _497
REMARK  184  A    between atoms: _499  and  _501
REMARK  185  A    between atoms: _501  and  _502
REMARK  186  A    between atoms: _501  and  _504
REMARK  187  A    between atoms: _504  and  _505
REMARK  188  A    between atoms: _510  and  _511
REMARK  189  A    between atoms: _513  and  _515
REMARK  190  A    between atoms: _515  and  _516
REMARK  191  A    between atoms: _515  and  _518
REMARK  192  A    between atoms: _518  and  _519
REMARK  193  A    between atoms: _519  and  _520
REMARK  194  A    between atoms: _523  and  _525
REMARK  195  A    between atoms: _525  and  _526
REMARK  196  A    between atoms: _525  and  _528
REMARK  197  A    between atoms: _528  and  _529
REMARK  198  A    between atoms: _529  and  _530
REMARK  199  A    between atoms: _532  and  _534
REMARK  200  A    between atoms: _534  and  _535
REMARK  201  A    between atoms: _534  and  _537
REMARK  202  A    between atoms: _540  and  _542
REMARK  203  A    between atoms: _542  and  _543
REMARK  204  A    between atoms: _542  and  _545
REMARK  205  A    between atoms: _545  and  _546
REMARK  206  A    between atoms: _556  and  _558
REMARK  207  A    between atoms: _558  and  _559
REMARK  208  A    between atoms: _562  and  _564
REMARK  209  A    between atoms: _564  and  _565
REMARK  210  A    between atoms: _564  and  _567
REMARK  211  A    between atoms: _567  and  _568
REMARK  212  A    between atoms: _571  and  _573
REMARK  213  A    between atoms: _573  and  _574
REMARK  214  A    between atoms: _573  and  _576
REMARK  215  A    between atoms: _576  and  _577
REMARK                            x       y       z     vdW  Elec       q    Type
REMARK                         _______ _______ _______ _____ _____    ______ ____
ROOT
ATOM      1  O   HOH     1       0.534   2.839 -14.595  0.00  0.00    +0.000 OA
ENDROOT
TORSDOF 0
REMARK  Name = ../refined-set-2016/3rm4/3rm4_pocket.pdb
REMARK  215 active torsions:
REMARK  status: ('A' for Active; 'I' for Inactive)
REMARK    1  A    between atoms: _1  and  _3
REMARK    2  A    between atoms: _3  and  _4
REMARK    3  A    between atoms: _3  and  _6
REMARK    4  A    between atoms: _6  and  _7
REMARK    5  A    between atoms: _12  and  _13
REMARK    6  A    between atoms: _15  and  _17
REMARK    7  A    between atoms: _17  and  _18
REMARK    8  A    between atoms: _17  and  _20
REMARK    9  A    between atoms: _20  and  _21
REMARK   10  A    between atoms: _24  and  _26
REMARK   11  A    between atoms: _26  and  _27
REMARK   12  A    between atoms: _26  and  _29
REMARK   13  A    between atoms: _29  and  _30
REMARK   14  A    between atoms: _40  and  _42
REMARK   15  A    between atoms: _42  and  _43
REMARK   16  A    between atoms: _42  and  _45
REMARK   17  A    between atoms: _45  and  _46
REMARK   18  A    between atoms: _46  and  _47
REMARK   19  A    between atoms: _47  and  _48
REMARK   20  A    between atoms: _57  and  _59
REMARK   21  A    between atoms: _59  and  _60
REMARK   22  A    between atoms: _59  and  _62
REMARK   23  A    between atoms: _62  and  _63
REMARK   24  A    between atoms: _66  and  _68
REMARK   25  A    between atoms: _68  and  _69
REMARK   26  A    between atoms: _72  and  _74
REMARK   27  A    between atoms: _74  and  _75
REMARK   28  A    between atoms: _74  and  _77
REMARK   29  A    between atoms: _77  and  _78
REMARK   30  A    between atoms: _84  and  _86
REMARK   31  A    between atoms: _86  and  _87
REMARK   32  A    between atoms: _90  and  _92
REMARK   33  A    between atoms: _92  and  _93
REMARK   34  A    between atoms: _92  and  _95
REMARK   35  A    between atoms: _95  and  _96
REMARK   36  A    between atoms: _99  and  _101
REMARK   37  A    between atoms: _101  and  _102
REMARK   38  A    between atoms: _104  and  _106
REMARK   39  A    between atoms: _106  and  _107
REMARK   40  A    between atoms: _109  and  _111
REMARK   41  A    between atoms: _111  and  _112
REMARK   42  A    between atoms: _111  and  _114
REMARK   43  A    between atoms: _114  and  _115
REMARK   44  A    between atoms: _125  and  _127
REMARK   45  A    between atoms: _127  and  _128
REMARK   46  A    between atoms: _127  and  _130
REMARK   47  A    between atoms: _130  and  _131
REMARK   48  A    between atoms: _136  and  _138
REMARK   49  A    between atoms: _138  and  _139
REMARK   50  A    between atoms: _138  and  _141
REMARK   51  A    between atoms: _141  and  _142
REMARK   52  A    between atoms: _145  and  _147
REMARK   53  A    between atoms: _147  and  _148
REMARK   54  A    between atoms: _147  and  _150
REMARK   55  A    between atoms: _150  and  _151
REMARK   56  A    between atoms: _157  and  _159
REMARK   57  A    between atoms: _159  and  _160
REMARK   58  A    between atoms: _159  and  _162
REMARK   59  A    between atoms: _162  and  _163
REMARK   60  A    between atoms: _166  and  _168
REMARK   61  A    between atoms: _168  and  _169
REMARK   62  A    between atoms: _168  and  _171
REMARK   63  A    between atoms: _171  and  _172
REMARK   64  A    between atoms: _182  and  _184
REMARK   65  A    between atoms: _184  and  _185
REMARK   66  A    between atoms: _184  and  _187
REMARK   67  A    between atoms: _187  and  _188
REMARK   68  A    between atoms: _188  and  _189
REMARK   69  A    between atoms: _192  and  _194
REMARK   70  A    between atoms: _194  and  _195
REMARK   71  A    between atoms: _194  and  _197
REMARK   72  A    between atoms: _197  and  _198
REMARK   73  A    between atoms: _203  and  _204
REMARK   74  A    between atoms: _206  and  _208
REMARK   75  A    between atoms: _208  and  _209
REMARK   76  A    between atoms: _208  and  _211
REMARK   77  A    between atoms: _211  and  _212
REMARK   78  A    between atoms: _212  and  _213
REMARK   79  A    between atoms: _213  and  _214
REMARK   80  A    between atoms: _223  and  _225
REMARK   81  A    between atoms: _225  and  _226
REMARK   82  A    between atoms: _229  and  _231
REMARK   83  A    between atoms: _231  and  _232
REMARK   84  A    between atoms: _235  and  _237
REMARK   85  A    between atoms: _237  and  _238
REMARK   86  A    between atoms: _237  and  _240
REMARK   87  A    between atoms: _243  and  _245
REMARK   88  A    between atoms: _245  and  _246
REMARK   89  A    between atoms: _245  and  _248
REMARK   90  A    between atoms: _248  and  _249
REMARK   91  A    between atoms: _254  and  _256
REMARK   92  A    between atoms: _256  and  _257
REMARK   93  A    between atoms: _256  and  _259
REMARK   94  A    between atoms: _262  and  _264
REMARK   95  A    between atoms: _264  and  _265
REMARK   96  A    between atoms: _264  and  _267
REMARK   97  A    between atoms: _267  and  _268
REMARK   98  A    between atoms: _268  and  _269
REMARK   99  A    between atoms: _271  and  _273
REMARK  100  A    between atoms: _273  and  _274
REMARK  101  A    between atoms: _273  and  _276
REMARK  102  A    between atoms: _276  and  _277
REMARK  103  A    between atoms: _280  and  _282
REMARK  104  A    between atoms: _282  and  _283
REMARK  105  A    between atoms: _282  and  _285
REMARK  106  A    between atoms: _285  and  _286
REMARK  107  A    between atoms: _291  and  _292
REMARK  108  A    between atoms: _294  and  _296
REMARK  109  A    between atoms: _296  and  _297
REMARK  110  A    between atoms: _296  and  _299
REMARK  111  A    between atoms: _299  and  _300
REMARK  112  A    between atoms: _303  and  _305
REMARK  113  A    between atoms: _305  and  _306
REMARK  114  A    between atoms: _305  and  _308
REMARK  115  A    between atoms: _308  and  _309
REMARK  116  A    between atoms: _319  and  _321
REMARK  117  A    between atoms: _321  and  _322
REMARK  118  A    between atoms: _321  and  _324
REMARK  119  A    between atoms: _324  and  _325
REMARK  120  A    between atoms: _330  and  _332
REMARK  121  A    between atoms: _332  and  _333
REMARK  122  A    between atoms: _335  and  _337
REMARK  123  A    between atoms: _337  and  _338
REMARK  124  A    between atoms: _337  and  _340
REMARK  125  A    between atoms: _340  and  _341
REMARK  126  A    between atoms: _348  and  _349
REMARK  127  A    between atoms: _354  and  _356
REMARK  128  A    between atoms: _356  and  _357
REMARK  129  A    between atoms: _356  and  _359
REMARK  130  A    between atoms: _359  and  _360
REMARK  131  A    between atoms: _363  and  _365
REMARK  132  A    between atoms: _365  and  _366
REMARK  133  A    between atoms: _365  and  _368
REMARK  134  A    between atoms: _368  and  _369
REMARK  135  A    between atoms: _374  and  _375
REMARK  136  A    between atoms: _377  and  _379
REMARK  137  A    between atoms: _379  and  _380
REMARK  138  A    between atoms: _382  and  _384
REMARK  139  A    between atoms: _384  and  _385
REMARK  140  A    between atoms: _384  and  _387
REMARK  141  A    between atoms: _387  and  _388
REMARK  142  A    between atoms: _393  and  _395
REMARK  143  A    between atoms: _395  and  _396
REMARK  144  A    between atoms: _398  and  _400
REMARK  145  A    between atoms: _400  and  _401
REMARK  146  A    between atoms: _400  and  _403
REMARK  147  A    between atoms: _403  and  _404
REMARK  148  A    between atoms: _409  and  _410
REMARK  149  A    between atoms: _412  and  _414
REMARK  150  A    between atoms: _414  and  _415
REMARK  151  A    between atoms: _418  and  _420
REMARK  152  A    between atoms: _420  and  _421
REMARK  153  A    between atoms: _420  and  _423
REMARK  154  A    between atoms: _423  and  _424
REMARK  155  A    between atoms: _424  and  _425
REMARK  156  A    between atoms: _425  and  _426
REMARK  157  A    between atoms: _426  and  _427
REMARK  158  A    between atoms: _431  and  _433
REMARK  159  A    between atoms: _433  and  _434
REMARK  160  A    between atoms: _433  and  _436
REMARK  161  A    between atoms: _436  and  _437
REMARK  162  A    between atoms: _437  and  _438
REMARK  163  A    between atoms: _441  and  _443
REMARK  164  A    between atoms: _443  and  _444
REMARK  165  A    between atoms: _443  and  _446
REMARK  166  A    between atoms: _446  and  _447
REMARK  167  A    between atoms: _449  and  _451
REMARK  168  A    between atoms: _451  and  _452
REMARK  169  A    between atoms: _454  and  _456
REMARK  170  A    between atoms: _456  and  _457
REMARK  171  A    between atoms: _456  and  _459
REMARK  172  A    between atoms: _459  and  _460
REMARK  173  A    between atoms: _463  and  _465
REMARK  174  A    between atoms: _465  and  _466
REMARK  175  A    between atoms: _465  and  _468
REMARK  176  A    between atoms: _468  and  _469
REMARK  177  A    between atoms: _479  and  _481
REMARK  178  A    between atoms: _481  and  _482
REMARK  179  A    between atoms: _485  and  _487
REMARK  180  A    between atoms: _487  and  _488
REMARK  181  A    between atoms: _487  and  _490
REMARK  182  A    between atoms: _490  and  _491
REMARK  183  A    between atoms: _496  and  _497
REMARK  184  A    between atoms: _499  and  _501
REMARK  185  A    between atoms: _501  and  _502
REMARK  186  A    between atoms: _501  and  _504
REMARK  187  A    between atoms: _504  and  _505
REMARK  188  A    between atoms: _510  and  _511
REMARK  189  A    between atoms: _513  and  _515
REMARK  190  A    between atoms: _515  and  _516
REMARK  191  A    between atoms: _515  and  _518
REMARK  192  A    between atoms: _518  and  _519
REMARK  193  A    between atoms: _519  and  _520
REMARK  194  A    between atoms: _523  and  _525
REMARK  195  A    between atoms: _525  and  _526
REMARK  196  A    between atoms: _525  and  _528
REMARK  197  A    between atoms: _528  and  _529
REMARK  198  A    between atoms: _529  and  _530
REMARK  199  A    between atoms: _532  and  _534
REMARK  200  A    between atoms: _534  and  _535
REMARK  201  A    between atoms: _534  and  _537
REMARK  202  A    between atoms: _540  and  _542
REMARK  203  A    between atoms: _542  and  _543
REMARK  204  A    between atoms: _542  and  _545
REMARK  205  A    between atoms: _545  and  _546
REMARK  206  A    between atoms: _556  and  _558
REMARK  207  A    between atoms: _558  and  _559
REMARK  208  A    between atoms: _562  and  _564
REMARK  209  A    between atoms: _564  and  _565
REMARK  210  A    between atoms: _564  and  _567
REMARK  211  A    between atoms: _567  and  _568
REMARK  212  A    between atoms: _571  and  _573
REMARK  213  A    between atoms: _573  and  _574
REMARK  214  A    between atoms: _573  and  _576
REMARK  215  A    between atoms: _576  and  _577
REMARK                            x       y       z     vdW  Elec       q    Type
REMARK                         _______ _______ _______ _____ _____    ______ ____
ROOT
ATOM      1  O   HOH     1       6.808  -3.692 -20.788  0.00  0.00    +0.000 OA
ENDROOT
TORSDOF 0
REMARK  Name = ../refined-set-2016/3rm4/3rm4_pocket.pdb
REMARK  215 active torsions:
REMARK  status: ('A' for Active; 'I' for Inactive)
REMARK    1  A    between atoms: _1  and  _3
REMARK    2  A    between atoms: _3  and  _4
REMARK    3  A    between atoms: _3  and  _6
REMARK    4  A    between atoms: _6  and  _7
REMARK    5  A    between atoms: _12  and  _13
REMARK    6  A    between atoms: _15  and  _17
REMARK    7  A    between atoms: _17  and  _18
REMARK    8  A    between atoms: _17  and  _20
REMARK    9  A    between atoms: _20  and  _21
REMARK   10  A    between atoms: _24  and  _26
REMARK   11  A    between atoms: _26  and  _27
REMARK   12  A    between atoms: _26  and  _29
REMARK   13  A    between atoms: _29  and  _30
REMARK   14  A    between atoms: _40  and  _42
REMARK   15  A    between atoms: _42  and  _43
REMARK   16  A    between atoms: _42  and  _45
REMARK   17  A    between atoms: _45  and  _46
REMARK   18  A    between atoms: _46  and  _47
REMARK   19  A    between atoms: _47  and  _48
REMARK   20  A    between atoms: _57  and  _59
REMARK   21  A    between atoms: _59  and  _60
REMARK   22  A    between atoms: _59  and  _62
REMARK   23  A    between atoms: _62  and  _63
REMARK   24  A    between atoms: _66  and  _68
REMARK   25  A    between atoms: _68  and  _69
REMARK   26  A    between atoms: _72  and  _74
REMARK   27  A    between atoms: _74  and  _75
REMARK   28  A    between atoms: _74  and  _77
REMARK   29  A    between atoms: _77  and  _78
REMARK   30  A    between atoms: _84  and  _86
REMARK   31  A    between atoms: _86  and  _87
REMARK   32  A    between atoms: _90  and  _92
REMARK   33  A    between atoms: _92  and  _93
REMARK   34  A    between atoms: _92  and  _95
REMARK   35  A    between atoms: _95  and  _96
REMARK   36  A    between atoms: _99  and  _101
REMARK   37  A    between atoms: _101  and  _102
REMARK   38  A    between atoms: _104  and  _106
REMARK   39  A    between atoms: _106  and  _107
REMARK   40  A    between atoms: _109  and  _111
REMARK   41  A    between atoms: _111  and  _112
REMARK   42  A    between atoms: _111  and  _114
REMARK   43  A    between atoms: _114  and  _115
REMARK   44  A    between atoms: _125  and  _127
REMARK   45  A    between atoms: _127  and  _128
REMARK   46  A    between atoms: _127  and  _130
REMARK   47  A    between atoms: _130  and  _131
REMARK   48  A    between atoms: _136  and  _138
REMARK   49  A    between atoms: _138  and  _139
REMARK   50  A    between atoms: _138  and  _141
REMARK   51  A    between atoms: _141  and  _142
REMARK   52  A    between atoms: _145  and  _147
REMARK   53  A    between atoms: _147  and  _148
REMARK   54  A    between atoms: _147  and  _150
REMARK   55  A    between atoms: _150  and  _151
REMARK   56  A    between atoms: _157  and  _159
REMARK   57  A    between atoms: _159  and  _160
REMARK   58  A    between atoms: _159  and  _162
REMARK   59  A    between atoms: _162  and  _163
REMARK   60  A    between atoms: _166  and  _168
REMARK   61  A    between atoms: _168  and  _169
REMARK   62  A    between atoms: _168  and  _171
REMARK   63  A    between atoms: _171  and  _172
REMARK   64  A    between atoms: _182  and  _184
REMARK   65  A    between atoms: _184  and  _185
REMARK   66  A    between atoms: _184  and  _187
REMARK   67  A    between atoms: _187  and  _188
REMARK   68  A    between atoms: _188  and  _189
REMARK   69  A    between atoms: _192  and  _194
REMARK   70  A    between atoms: _194  and  _195
REMARK   71  A    between atoms: _194  and  _197
REMARK   72  A    between atoms: _197  and  _198
REMARK   73  A    between atoms: _203  and  _204
REMARK   74  A    between atoms: _206  and  _208
REMARK   75  A    between atoms: _208  and  _209
REMARK   76  A    between atoms: _208  and  _211
REMARK   77  A    between atoms: _211  and  _212
REMARK   78  A    between atoms: _212  and  _213
REMARK   79  A    between atoms: _213  and  _214
REMARK   80  A    between atoms: _223  and  _225
REMARK   81  A    between atoms: _225  and  _226
REMARK   82  A    between atoms: _229  and  _231
REMARK   83  A    between atoms: _231  and  _232
REMARK   84  A    between atoms: _235  and  _237
REMARK   85  A    between atoms: _237  and  _238
REMARK   86  A    between atoms: _237  and  _240
REMARK   87  A    between atoms: _243  and  _245
REMARK   88  A    between atoms: _245  and  _246
REMARK   89  A    between atoms: _245  and  _248
REMARK   90  A    between atoms: _248  and  _249
REMARK   91  A    between atoms: _254  and  _256
REMARK   92  A    between atoms: _256  and  _257
REMARK   93  A    between atoms: _256  and  _259
REMARK   94  A    between atoms: _262  and  _264
REMARK   95  A    between atoms: _264  and  _265
REMARK   96  A    between atoms: _264  and  _267
REMARK   97  A    between atoms: _267  and  _268
REMARK   98  A    between atoms: _268  and  _269
REMARK   99  A    between atoms: _271  and  _273
REMARK  100  A    between atoms: _273  and  _274
REMARK  101  A    between atoms: _273  and  _276
REMARK  102  A    between atoms: _276  and  _277
REMARK  103  A    between atoms: _280  and  _282
REMARK  104  A    between atoms: _282  and  _283
REMARK  105  A    between atoms: _282  and  _285
REMARK  106  A    between atoms: _285  and  _286
REMARK  107  A    between atoms: _291  and  _292
REMARK  108  A    between atoms: _294  and  _296
REMARK  109  A    between atoms: _296  and  _297
REMARK  110  A    between atoms: _296  and  _299
REMARK  111  A    between atoms: _299  and  _300
REMARK  112  A    between atoms: _303  and  _305
REMARK  113  A    between atoms: _305  and  _306
REMARK  114  A    between atoms: _305  and  _308
REMARK  115  A    between atoms: _308  and  _309
REMARK  116  A    between atoms: _319  and  _321
REMARK  117  A    between atoms: _321  and  _322
REMARK  118  A    between atoms: _321  and  _324
REMARK  119  A    between atoms: _324  and  _325
REMARK  120  A    between atoms: _330  and  _332
REMARK  121  A    between atoms: _332  and  _333
REMARK  122  A    between atoms: _335  and  _337
REMARK  123  A    between atoms: _337  and  _338
REMARK  124  A    between atoms: _337  and  _340
REMARK  125  A    between atoms: _340  and  _341
REMARK  126  A    between atoms: _348  and  _349
REMARK  127  A    between atoms: _354  and  _356
REMARK  128  A    between atoms: _356  and  _357
REMARK  129  A    between atoms: _356  and  _359
REMARK  130  A    between atoms: _359  and  _360
REMARK  131  A    between atoms: _363  and  _365
REMARK  132  A    between atoms: _365  and  _366
REMARK  133  A    between atoms: _365  and  _368
REMARK  134  A    between atoms: _368  and  _369
REMARK  135  A    between atoms: _374  and  _375
REMARK  136  A    between atoms: _377  and  _379
REMARK  137  A    between atoms: _379  and  _380
REMARK  138  A    between atoms: _382  and  _384
REMARK  139  A    between atoms: _384  and  _385
REMARK  140  A    between atoms: _384  and  _387
REMARK  141  A    between atoms: _387  and  _388
REMARK  142  A    between atoms: _393  and  _395
REMARK  143  A    between atoms: _395  and  _396
REMARK  144  A    between atoms: _398  and  _400
REMARK  145  A    between atoms: _400  and  _401
REMARK  146  A    between atoms: _400  and  _403
REMARK  147  A    between atoms: _403  and  _404
REMARK  148  A    between atoms: _409  and  _410
REMARK  149  A    between atoms: _412  and  _414
REMARK  150  A    between atoms: _414  and  _415
REMARK  151  A    between atoms: _418  and  _420
REMARK  152  A    between atoms: _420  and  _421
REMARK  153  A    between atoms: _420  and  _423
REMARK  154  A    between atoms: _423  and  _424
REMARK  155  A    between atoms: _424  and  _425
REMARK  156  A    between atoms: _425  and  _426
REMARK  157  A    between atoms: _426  and  _427
REMARK  158  A    between atoms: _431  and  _433
REMARK  159  A    between atoms: _433  and  _434
REMARK  160  A    between atoms: _433  and  _436
REMARK  161  A    between atoms: _436  and  _437
REMARK  162  A    between atoms: _437  and  _438
REMARK  163  A    between atoms: _441  and  _443
REMARK  164  A    between atoms: _443  and  _444
REMARK  165  A    between atoms: _443  and  _446
REMARK  166  A    between atoms: _446  and  _447
REMARK  167  A    between atoms: _449  and  _451
REMARK  168  A    between atoms: _451  and  _452
REMARK  169  A    between atoms: _454  and  _456
REMARK  170  A    between atoms: _456  and  _457
REMARK  171  A    between atoms: _456  and  _459
REMARK  172  A    between atoms: _459  and  _460
REMARK  173  A    between atoms: _463  and  _465
REMARK  174  A    between atoms: _465  and  _466
REMARK  175  A    between atoms: _465  and  _468
REMARK  176  A    between atoms: _468  and  _469
REMARK  177  A    between atoms: _479  and  _481
REMARK  178  A    between atoms: _481  and  _482
REMARK  179  A    between atoms: _485  and  _487
REMARK  180  A    between atoms: _487  and  _488
REMARK  181  A    between atoms: _487  and  _490
REMARK  182  A    between atoms: _490  and  _491
REMARK  183  A    between atoms: _496  and  _497
REMARK  184  A    between atoms: _499  and  _501
REMARK  185  A    between atoms: _501  and  _502
REMARK  186  A    between atoms: _501  and  _504
REMARK  187  A    between atoms: _504  and  _505
REMARK  188  A    between atoms: _510  and  _511
REMARK  189  A    between atoms: _513  and  _515
REMARK  190  A    between atoms: _515  and  _516
REMARK  191  A    between atoms: _515  and  _518
REMARK  192  A    between atoms: _518  and  _519
REMARK  193  A    between atoms: _519  and  _520
REMARK  194  A    between atoms: _523  and  _525
REMARK  195  A    between atoms: _525  and  _526
REMARK  196  A    between atoms: _525  and  _528
REMARK  197  A    between atoms: _528  and  _529
REMARK  198  A    between atoms: _529  and  _530
REMARK  199  A    between atoms: _532  and  _534
REMARK  200  A    between atoms: _534  and  _535
REMARK  201  A    between atoms: _534  and  _537
REMARK  202  A    between atoms: _540  and  _542
REMARK  203  A    between atoms: _542  and  _543
REMARK  204  A    between atoms: _542  and  _545
REMARK  205  A    between atoms: _545  and  _546
REMARK  206  A    between atoms: _556  and  _558
REMARK  207  A    between atoms: _558  and  _559
REMARK  208  A    between atoms: _562  and  _564
REMARK  209  A    between atoms: _564  and  _565
REMARK  210  A    between atoms: _564  and  _567
REMARK  211  A    between atoms: _567  and  _568
REMARK  212  A    between atoms: _571  and  _573
REMARK  213  A    between atoms: _573  and  _574
REMARK  214  A    between atoms: _573  and  _576
REMARK  215  A    between atoms: _576  and  _577
REMARK                            x       y       z     vdW  Elec       q    Type
REMARK                         _______ _______ _______ _____ _____    ______ ____
ROOT
ATOM      1  O   HOH     1       7.890   6.054 -11.402  0.00  0.00    +0.000 OA
ENDROOT
TORSDOF 0
