REMARK  Name = ../refined-set-2016/2i4d/2i4d_pocket.pdb
REMARK  229 active torsions:
REMARK  status: ('A' for Active; 'I' for Inactive)
REMARK    1  A    between atoms: _1  and  _3
REMARK    2  A    between atoms: _3  and  _4
REMARK    3  A    between atoms: _3  and  _6
REMARK    4  A    between atoms: _6  and  _7
REMARK    5  A    between atoms: _7  and  _8
REMARK    6  A    between atoms: _8  and  _9
REMARK    7  A    between atoms: _18  and  _20
REMARK    8  A    between atoms: _20  and  _21
REMARK    9  A    between atoms: _20  and  _23
REMARK   10  A    between atoms: _23  and  _24
REMARK   11  A    between atoms: _27  and  _29
REMARK   12  A    between atoms: _29  and  _30
REMARK   13  A    between atoms: _29  and  _32
REMARK   14  A    between atoms: _32  and  _33
REMARK   15  A    between atoms: _36  and  _38
REMARK   16  A    between atoms: _38  and  _39
REMARK   17  A    between atoms: _38  and  _41
REMARK   18  A    between atoms: _41  and  _42
REMARK   19  A    between atoms: _45  and  _47
REMARK   20  A    between atoms: _47  and  _48
REMARK   21  A    between atoms: _47  and  _50
REMARK   22  A    between atoms: _50  and  _51
REMARK   23  A    between atoms: _54  and  _56
REMARK   24  A    between atoms: _56  and  _57
REMARK   25  A    between atoms: _59  and  _61
REMARK   26  A    between atoms: _61  and  _62
REMARK   27  A    between atoms: _65  and  _67
REMARK   28  A    between atoms: _67  and  _68
REMARK   29  A    between atoms: _67  and  _70
REMARK   30  A    between atoms: _70  and  _71
REMARK   31  A    between atoms: _74  and  _76
REMARK   32  A    between atoms: _76  and  _77
REMARK   33  A    between atoms: _76  and  _79
REMARK   34  A    between atoms: _79  and  _80
REMARK   35  A    between atoms: _83  and  _85
REMARK   36  A    between atoms: _85  and  _86
REMARK   37  A    between atoms: _85  and  _88
REMARK   38  A    between atoms: _88  and  _89
REMARK   39  A    between atoms: _92  and  _94
REMARK   40  A    between atoms: _94  and  _95
REMARK   41  A    between atoms: _94  and  _97
REMARK   42  A    between atoms: _100  and  _102
REMARK   43  A    between atoms: _102  and  _103
REMARK   44  A    between atoms: _102  and  _105
REMARK   45  A    between atoms: _105  and  _106
REMARK   46  A    between atoms: _106  and  _107
REMARK   47  A    between atoms: _107  and  _108
REMARK   48  A    between atoms: _108  and  _109
REMARK   49  A    between atoms: _113  and  _115
REMARK   50  A    between atoms: _115  and  _116
REMARK   51  A    between atoms: _115  and  _118
REMARK   52  A    between atoms: _118  and  _119
REMARK   53  A    between atoms: _119  and  _120
REMARK   54  A    between atoms: _122  and  _124
REMARK   55  A    between atoms: _124  and  _125
REMARK   56  A    between atoms: _124  and  _127
REMARK   57  A    between atoms: _127  and  _128
REMARK   58  A    between atoms: _131  and  _133
REMARK   59  A    between atoms: _133  and  _134
REMARK   60  A    between atoms: _136  and  _138
REMARK   61  A    between atoms: _138  and  _139
REMARK   62  A    between atoms: _141  and  _143
REMARK   63  A    between atoms: _143  and  _144
REMARK   64  A    between atoms: _143  and  _146
REMARK   65  A    between atoms: _146  and  _147
REMARK   66  A    between atoms: _150  and  _152
REMARK   67  A    between atoms: _152  and  _153
REMARK   68  A    between atoms: _155  and  _157
REMARK   69  A    between atoms: _157  and  _158
REMARK   70  A    between atoms: _160  and  _162
REMARK   71  A    between atoms: _162  and  _163
REMARK   72  A    between atoms: _162  and  _165
REMARK   73  A    between atoms: _165  and  _166
REMARK   74  A    between atoms: _172  and  _174
REMARK   75  A    between atoms: _174  and  _175
REMARK   76  A    between atoms: _174  and  _177
REMARK   77  A    between atoms: _177  and  _178
REMARK   78  A    between atoms: _181  and  _183
REMARK   79  A    between atoms: _183  and  _184
REMARK   80  A    between atoms: _183  and  _186
REMARK   81  A    between atoms: _189  and  _191
REMARK   82  A    between atoms: _191  and  _192
REMARK   83  A    between atoms: _191  and  _194
REMARK   84  A    between atoms: _194  and  _195
REMARK   85  A    between atoms: _198  and  _200
REMARK   86  A    between atoms: _200  and  _201
REMARK   87  A    between atoms: _200  and  _203
REMARK   88  A    between atoms: _203  and  _204
REMARK   89  A    between atoms: _208  and  _209
REMARK   90  A    between atoms: _214  and  _216
REMARK   91  A    between atoms: _216  and  _217
REMARK   92  A    between atoms: _216  and  _219
REMARK   93  A    between atoms: _222  and  _224
REMARK   94  A    between atoms: _224  and  _225
REMARK   95  A    between atoms: _224  and  _227
REMARK   96  A    between atoms: _227  and  _228
REMARK   97  A    between atoms: _233  and  _235
REMARK   98  A    between atoms: _235  and  _236
REMARK   99  A    between atoms: _235  and  _238
REMARK  100  A    between atoms: _238  and  _239
REMARK  101  A    between atoms: _242  and  _244
REMARK  102  A    between atoms: _244  and  _245
REMARK  103  A    between atoms: _244  and  _247
REMARK  104  A    between atoms: _247  and  _248
REMARK  105  A    between atoms: _251  and  _253
REMARK  106  A    between atoms: _253  and  _254
REMARK  107  A    between atoms: _256  and  _258
REMARK  108  A    between atoms: _258  and  _259
REMARK  109  A    between atoms: _258  and  _261
REMARK  110  A    between atoms: _261  and  _262
REMARK  111  A    between atoms: _262  and  _263
REMARK  112  A    between atoms: _263  and  _264
REMARK  113  A    between atoms: _273  and  _275
REMARK  114  A    between atoms: _275  and  _276
REMARK  115  A    between atoms: _275  and  _278
REMARK  116  A    between atoms: _278  and  _279
REMARK  117  A    between atoms: _284  and  _286
REMARK  118  A    between atoms: _286  and  _287
REMARK  119  A    between atoms: _286  and  _289
REMARK  120  A    between atoms: _289  and  _290
REMARK  121  A    between atoms: _290  and  _291
REMARK  122  A    between atoms: _291  and  _292
REMARK  123  A    between atoms: _301  and  _303
REMARK  124  A    between atoms: _303  and  _304
REMARK  125  A    between atoms: _303  and  _306
REMARK  126  A    between atoms: _306  and  _307
REMARK  127  A    between atoms: _310  and  _312
REMARK  128  A    between atoms: _312  and  _313
REMARK  129  A    between atoms: _312  and  _315
REMARK  130  A    between atoms: _315  and  _316
REMARK  131  A    between atoms: _319  and  _321
REMARK  132  A    between atoms: _321  and  _322
REMARK  133  A    between atoms: _321  and  _324
REMARK  134  A    between atoms: _324  and  _325
REMARK  135  A    between atoms: _328  and  _330
REMARK  136  A    between atoms: _330  and  _331
REMARK  137  A    between atoms: _330  and  _333
REMARK  138  A    between atoms: _333  and  _334
REMARK  139  A    between atoms: _337  and  _339
REMARK  140  A    between atoms: _339  and  _340
REMARK  141  A    between atoms: _342  and  _344
REMARK  142  A    between atoms: _344  and  _345
REMARK  143  A    between atoms: _348  and  _350
REMARK  144  A    between atoms: _350  and  _351
REMARK  145  A    between atoms: _350  and  _353
REMARK  146  A    between atoms: _353  and  _354
REMARK  147  A    between atoms: _357  and  _359
REMARK  148  A    between atoms: _359  and  _360
REMARK  149  A    between atoms: _359  and  _362
REMARK  150  A    between atoms: _362  and  _363
REMARK  151  A    between atoms: _366  and  _368
REMARK  152  A    between atoms: _368  and  _369
REMARK  153  A    between atoms: _368  and  _371
REMARK  154  A    between atoms: _371  and  _372
REMARK  155  A    between atoms: _375  and  _377
REMARK  156  A    between atoms: _377  and  _378
REMARK  157  A    between atoms: _377  and  _380
REMARK  158  A    between atoms: _383  and  _385
REMARK  159  A    between atoms: _385  and  _386
REMARK  160  A    between atoms: _385  and  _388
REMARK  161  A    between atoms: _388  and  _389
REMARK  162  A    between atoms: _389  and  _390
REMARK  163  A    between atoms: _390  and  _391
REMARK  164  A    between atoms: _391  and  _392
REMARK  165  A    between atoms: _396  and  _398
REMARK  166  A    between atoms: _398  and  _399
REMARK  167  A    between atoms: _398  and  _401
REMARK  168  A    between atoms: _401  and  _402
REMARK  169  A    between atoms: _402  and  _403
REMARK  170  A    between atoms: _405  and  _407
REMARK  171  A    between atoms: _407  and  _408
REMARK  172  A    between atoms: _407  and  _410
REMARK  173  A    between atoms: _410  and  _411
REMARK  174  A    between atoms: _414  and  _416
REMARK  175  A    between atoms: _416  and  _417
REMARK  176  A    between atoms: _419  and  _421
REMARK  177  A    between atoms: _421  and  _422
REMARK  178  A    between atoms: _424  and  _426
REMARK  179  A    between atoms: _426  and  _427
REMARK  180  A    between atoms: _426  and  _429
REMARK  181  A    between atoms: _429  and  _430
REMARK  182  A    between atoms: _433  and  _435
REMARK  183  A    between atoms: _435  and  _436
REMARK  184  A    between atoms: _438  and  _440
REMARK  185  A    between atoms: _440  and  _441
REMARK  186  A    between atoms: _443  and  _445
REMARK  187  A    between atoms: _445  and  _446
REMARK  188  A    between atoms: _445  and  _448
REMARK  189  A    between atoms: _448  and  _449
REMARK  190  A    between atoms: _455  and  _457
REMARK  191  A    between atoms: _457  and  _458
REMARK  192  A    between atoms: _457  and  _460
REMARK  193  A    between atoms: _460  and  _461
REMARK  194  A    between atoms: _464  and  _466
REMARK  195  A    between atoms: _466  and  _467
REMARK  196  A    between atoms: _466  and  _469
REMARK  197  A    between atoms: _469  and  _470
REMARK  198  A    between atoms: _473  and  _475
REMARK  199  A    between atoms: _475  and  _476
REMARK  200  A    between atoms: _475  and  _478
REMARK  201  A    between atoms: _478  and  _479
REMARK  202  A    between atoms: _483  and  _484
REMARK  203  A    between atoms: _489  and  _491
REMARK  204  A    between atoms: _491  and  _492
REMARK  205  A    between atoms: _491  and  _494
REMARK  206  A    between atoms: _497  and  _499
REMARK  207  A    between atoms: _499  and  _500
REMARK  208  A    between atoms: _499  and  _502
REMARK  209  A    between atoms: _502  and  _503
REMARK  210  A    between atoms: _508  and  _510
REMARK  211  A    between atoms: _510  and  _511
REMARK  212  A    between atoms: _510  and  _513
REMARK  213  A    between atoms: _513  and  _514
REMARK  214  A    between atoms: _517  and  _519
REMARK  215  A    between atoms: _519  and  _520
REMARK  216  A    between atoms: _519  and  _522
REMARK  217  A    between atoms: _522  and  _523
REMARK  218  A    between atoms: _526  and  _528
REMARK  219  A    between atoms: _528  and  _529
REMARK  220  A    between atoms: _531  and  _533
REMARK  221  A    between atoms: _533  and  _534
REMARK  222  A    between atoms: _533  and  _536
REMARK  223  A    between atoms: _536  and  _537
REMARK  224  A    between atoms: _537  and  _538
REMARK  225  A    between atoms: _538  and  _539
REMARK  226  A    between atoms: _548  and  _550
REMARK  227  A    between atoms: _550  and  _551
REMARK  228  A    between atoms: _550  and  _553
REMARK  229  A    between atoms: _553  and  _554
REMARK                            x       y       z     vdW  Elec       q    Type
REMARK                         _______ _______ _______ _____ _____    ______ ____
ROOT
ATOM      1  NE  ARG A   1       5.757  20.834  15.353  0.00  0.00    -0.265 N 
ATOM      2  HE  ARG A   1       5.453  20.445  16.268  0.00  0.00    +0.259 HD
ATOM      3  CZ  ARG A   1       6.614  20.113  14.628  0.00  0.00    +0.342 C 
ATOM      4  NH2 ARG A   1       7.057  18.950  15.083  0.00  0.00    -0.292 N 
ATOM      5 HH21 ARG A   1       6.737  18.597  16.007  0.00  0.00    +0.255 HD
ATOM      6 HH22 ARG A   1       7.725  18.390  14.516  0.00  0.00    +0.255 HD
ATOM      7  NH1 ARG A   1       7.040  20.549  13.450  0.00  0.00    -0.292 N 
ATOM      8 HH11 ARG A   1       6.706  21.462  13.082  0.00  0.00    +0.255 HD
ATOM      9 HH12 ARG A   1       7.708  19.977  12.895  0.00  0.00    +0.255 HD
ENDROOT
BRANCH   1  10
ATOM     10  CD  ARG A   1       5.212  22.136  14.952  0.00  0.00    +0.174 C 
BRANCH  10  11
ATOM     11  CG  ARG A   1       4.425  22.809  16.081  0.00  0.00    +0.045 C 
BRANCH  11  12
ATOM     12  CB  ARG A   1       3.951  24.210  15.700  0.00  0.00    +0.029 C 
BRANCH  12  13
ATOM     13  CA  ARG A   1       3.364  25.034  16.857  0.00  0.00    +0.133 C 
BRANCH  13  14
ATOM     14  N   ARG A   1       2.150  24.416  17.374  0.00  0.00    -0.239 NA
ATOM     15  H   ARG A   1       1.809  23.528  16.953  0.00  0.00    +0.142 HD
ENDBRANCH  13  14
BRANCH  13  16
ATOM     16  C   ARG A   1       3.010  26.438  16.355  0.00  0.00    +0.224 C 
ATOM     17  O   ARG A   1       2.038  26.611  15.619  0.00  0.00    -0.287 OA
ENDBRANCH  13  16
ENDBRANCH  12  13
ENDBRANCH  11  12
ENDBRANCH  10  11
ENDBRANCH   1  10
TORSDOF 6
REMARK  Name = ../refined-set-2016/2i4d/2i4d_pocket.pdb
REMARK  229 active torsions:
REMARK  status: ('A' for Active; 'I' for Inactive)
REMARK    1  A    between atoms: _1  and  _3
REMARK    2  A    between atoms: _3  and  _4
REMARK    3  A    between atoms: _3  and  _6
REMARK    4  A    between atoms: _6  and  _7
REMARK    5  A    between atoms: _7  and  _8
REMARK    6  A    between atoms: _8  and  _9
REMARK    7  A    between atoms: _18  and  _20
REMARK    8  A    between atoms: _20  and  _21
REMARK    9  A    between atoms: _20  and  _23
REMARK   10  A    between atoms: _23  and  _24
REMARK   11  A    between atoms: _27  and  _29
REMARK   12  A    between atoms: _29  and  _30
REMARK   13  A    between atoms: _29  and  _32
REMARK   14  A    between atoms: _32  and  _33
REMARK   15  A    between atoms: _36  and  _38
REMARK   16  A    between atoms: _38  and  _39
REMARK   17  A    between atoms: _38  and  _41
REMARK   18  A    between atoms: _41  and  _42
REMARK   19  A    between atoms: _45  and  _47
REMARK   20  A    between atoms: _47  and  _48
REMARK   21  A    between atoms: _47  and  _50
REMARK   22  A    between atoms: _50  and  _51
REMARK   23  A    between atoms: _54  and  _56
REMARK   24  A    between atoms: _56  and  _57
REMARK   25  A    between atoms: _59  and  _61
REMARK   26  A    between atoms: _61  and  _62
REMARK   27  A    between atoms: _65  and  _67
REMARK   28  A    between atoms: _67  and  _68
REMARK   29  A    between atoms: _67  and  _70
REMARK   30  A    between atoms: _70  and  _71
REMARK   31  A    between atoms: _74  and  _76
REMARK   32  A    between atoms: _76  and  _77
REMARK   33  A    between atoms: _76  and  _79
REMARK   34  A    between atoms: _79  and  _80
REMARK   35  A    between atoms: _83  and  _85
REMARK   36  A    between atoms: _85  and  _86
REMARK   37  A    between atoms: _85  and  _88
REMARK   38  A    between atoms: _88  and  _89
REMARK   39  A    between atoms: _92  and  _94
REMARK   40  A    between atoms: _94  and  _95
REMARK   41  A    between atoms: _94  and  _97
REMARK   42  A    between atoms: _100  and  _102
REMARK   43  A    between atoms: _102  and  _103
REMARK   44  A    between atoms: _102  and  _105
REMARK   45  A    between atoms: _105  and  _106
REMARK   46  A    between atoms: _106  and  _107
REMARK   47  A    between atoms: _107  and  _108
REMARK   48  A    between atoms: _108  and  _109
REMARK   49  A    between atoms: _113  and  _115
REMARK   50  A    between atoms: _115  and  _116
REMARK   51  A    between atoms: _115  and  _118
REMARK   52  A    between atoms: _118  and  _119
REMARK   53  A    between atoms: _119  and  _120
REMARK   54  A    between atoms: _122  and  _124
REMARK   55  A    between atoms: _124  and  _125
REMARK   56  A    between atoms: _124  and  _127
REMARK   57  A    between atoms: _127  and  _128
REMARK   58  A    between atoms: _131  and  _133
REMARK   59  A    between atoms: _133  and  _134
REMARK   60  A    between atoms: _136  and  _138
REMARK   61  A    between atoms: _138  and  _139
REMARK   62  A    between atoms: _141  and  _143
REMARK   63  A    between atoms: _143  and  _144
REMARK   64  A    between atoms: _143  and  _146
REMARK   65  A    between atoms: _146  and  _147
REMARK   66  A    between atoms: _150  and  _152
REMARK   67  A    between atoms: _152  and  _153
REMARK   68  A    between atoms: _155  and  _157
REMARK   69  A    between atoms: _157  and  _158
REMARK   70  A    between atoms: _160  and  _162
REMARK   71  A    between atoms: _162  and  _163
REMARK   72  A    between atoms: _162  and  _165
REMARK   73  A    between atoms: _165  and  _166
REMARK   74  A    between atoms: _172  and  _174
REMARK   75  A    between atoms: _174  and  _175
REMARK   76  A    between atoms: _174  and  _177
REMARK   77  A    between atoms: _177  and  _178
REMARK   78  A    between atoms: _181  and  _183
REMARK   79  A    between atoms: _183  and  _184
REMARK   80  A    between atoms: _183  and  _186
REMARK   81  A    between atoms: _189  and  _191
REMARK   82  A    between atoms: _191  and  _192
REMARK   83  A    between atoms: _191  and  _194
REMARK   84  A    between atoms: _194  and  _195
REMARK   85  A    between atoms: _198  and  _200
REMARK   86  A    between atoms: _200  and  _201
REMARK   87  A    between atoms: _200  and  _203
REMARK   88  A    between atoms: _203  and  _204
REMARK   89  A    between atoms: _208  and  _209
REMARK   90  A    between atoms: _214  and  _216
REMARK   91  A    between atoms: _216  and  _217
REMARK   92  A    between atoms: _216  and  _219
REMARK   93  A    between atoms: _222  and  _224
REMARK   94  A    between atoms: _224  and  _225
REMARK   95  A    between atoms: _224  and  _227
REMARK   96  A    between atoms: _227  and  _228
REMARK   97  A    between atoms: _233  and  _235
REMARK   98  A    between atoms: _235  and  _236
REMARK   99  A    between atoms: _235  and  _238
REMARK  100  A    between atoms: _238  and  _239
REMARK  101  A    between atoms: _242  and  _244
REMARK  102  A    between atoms: _244  and  _245
REMARK  103  A    between atoms: _244  and  _247
REMARK  104  A    between atoms: _247  and  _248
REMARK  105  A    between atoms: _251  and  _253
REMARK  106  A    between atoms: _253  and  _254
REMARK  107  A    between atoms: _256  and  _258
REMARK  108  A    between atoms: _258  and  _259
REMARK  109  A    between atoms: _258  and  _261
REMARK  110  A    between atoms: _261  and  _262
REMARK  111  A    between atoms: _262  and  _263
REMARK  112  A    between atoms: _263  and  _264
REMARK  113  A    between atoms: _273  and  _275
REMARK  114  A    between atoms: _275  and  _276
REMARK  115  A    between atoms: _275  and  _278
REMARK  116  A    between atoms: _278  and  _279
REMARK  117  A    between atoms: _284  and  _286
REMARK  118  A    between atoms: _286  and  _287
REMARK  119  A    between atoms: _286  and  _289
REMARK  120  A    between atoms: _289  and  _290
REMARK  121  A    between atoms: _290  and  _291
REMARK  122  A    between atoms: _291  and  _292
REMARK  123  A    between atoms: _301  and  _303
REMARK  124  A    between atoms: _303  and  _304
REMARK  125  A    between atoms: _303  and  _306
REMARK  126  A    between atoms: _306  and  _307
REMARK  127  A    between atoms: _310  and  _312
REMARK  128  A    between atoms: _312  and  _313
REMARK  129  A    between atoms: _312  and  _315
REMARK  130  A    between atoms: _315  and  _316
REMARK  131  A    between atoms: _319  and  _321
REMARK  132  A    between atoms: _321  and  _322
REMARK  133  A    between atoms: _321  and  _324
REMARK  134  A    between atoms: _324  and  _325
REMARK  135  A    between atoms: _328  and  _330
REMARK  136  A    between atoms: _330  and  _331
REMARK  137  A    between atoms: _330  and  _333
REMARK  138  A    between atoms: _333  and  _334
REMARK  139  A    between atoms: _337  and  _339
REMARK  140  A    between atoms: _339  and  _340
REMARK  141  A    between atoms: _342  and  _344
REMARK  142  A    between atoms: _344  and  _345
REMARK  143  A    between atoms: _348  and  _350
REMARK  144  A    between atoms: _350  and  _351
REMARK  145  A    between atoms: _350  and  _353
REMARK  146  A    between atoms: _353  and  _354
REMARK  147  A    between atoms: _357  and  _359
REMARK  148  A    between atoms: _359  and  _360
REMARK  149  A    between atoms: _359  and  _362
REMARK  150  A    between atoms: _362  and  _363
REMARK  151  A    between atoms: _366  and  _368
REMARK  152  A    between atoms: _368  and  _369
REMARK  153  A    between atoms: _368  and  _371
REMARK  154  A    between atoms: _371  and  _372
REMARK  155  A    between atoms: _375  and  _377
REMARK  156  A    between atoms: _377  and  _378
REMARK  157  A    between atoms: _377  and  _380
REMARK  158  A    between atoms: _383  and  _385
REMARK  159  A    between atoms: _385  and  _386
REMARK  160  A    between atoms: _385  and  _388
REMARK  161  A    between atoms: _388  and  _389
REMARK  162  A    between atoms: _389  and  _390
REMARK  163  A    between atoms: _390  and  _391
REMARK  164  A    between atoms: _391  and  _392
REMARK  165  A    between atoms: _396  and  _398
REMARK  166  A    between atoms: _398  and  _399
REMARK  167  A    between atoms: _398  and  _401
REMARK  168  A    between atoms: _401  and  _402
REMARK  169  A    between atoms: _402  and  _403
REMARK  170  A    between atoms: _405  and  _407
REMARK  171  A    between atoms: _407  and  _408
REMARK  172  A    between atoms: _407  and  _410
REMARK  173  A    between atoms: _410  and  _411
REMARK  174  A    between atoms: _414  and  _416
REMARK  175  A    between atoms: _416  and  _417
REMARK  176  A    between atoms: _419  and  _421
REMARK  177  A    between atoms: _421  and  _422
REMARK  178  A    between atoms: _424  and  _426
REMARK  179  A    between atoms: _426  and  _427
REMARK  180  A    between atoms: _426  and  _429
REMARK  181  A    between atoms: _429  and  _430
REMARK  182  A    between atoms: _433  and  _435
REMARK  183  A    between atoms: _435  and  _436
REMARK  184  A    between atoms: _438  and  _440
REMARK  185  A    between atoms: _440  and  _441
REMARK  186  A    between atoms: _443  and  _445
REMARK  187  A    between atoms: _445  and  _446
REMARK  188  A    between atoms: _445  and  _448
REMARK  189  A    between atoms: _448  and  _449
REMARK  190  A    between atoms: _455  and  _457
REMARK  191  A    between atoms: _457  and  _458
REMARK  192  A    between atoms: _457  and  _460
REMARK  193  A    between atoms: _460  and  _461
REMARK  194  A    between atoms: _464  and  _466
REMARK  195  A    between atoms: _466  and  _467
REMARK  196  A    between atoms: _466  and  _469
REMARK  197  A    between atoms: _469  and  _470
REMARK  198  A    between atoms: _473  and  _475
REMARK  199  A    between atoms: _475  and  _476
REMARK  200  A    between atoms: _475  and  _478
REMARK  201  A    between atoms: _478  and  _479
REMARK  202  A    between atoms: _483  and  _484
REMARK  203  A    between atoms: _489  and  _491
REMARK  204  A    between atoms: _491  and  _492
REMARK  205  A    between atoms: _491  and  _494
REMARK  206  A    between atoms: _497  and  _499
REMARK  207  A    between atoms: _499  and  _500
REMARK  208  A    between atoms: _499  and  _502
REMARK  209  A    between atoms: _502  and  _503
REMARK  210  A    between atoms: _508  and  _510
REMARK  211  A    between atoms: _510  and  _511
REMARK  212  A    between atoms: _510  and  _513
REMARK  213  A    between atoms: _513  and  _514
REMARK  214  A    between atoms: _517  and  _519
REMARK  215  A    between atoms: _519  and  _520
REMARK  216  A    between atoms: _519  and  _522
REMARK  217  A    between atoms: _522  and  _523
REMARK  218  A    between atoms: _526  and  _528
REMARK  219  A    between atoms: _528  and  _529
REMARK  220  A    between atoms: _531  and  _533
REMARK  221  A    between atoms: _533  and  _534
REMARK  222  A    between atoms: _533  and  _536
REMARK  223  A    between atoms: _536  and  _537
REMARK  224  A    between atoms: _537  and  _538
REMARK  225  A    between atoms: _538  and  _539
REMARK  226  A    between atoms: _548  and  _550
REMARK  227  A    between atoms: _550  and  _551
REMARK  228  A    between atoms: _550  and  _553
REMARK  229  A    between atoms: _553  and  _554
REMARK                            x       y       z     vdW  Elec       q    Type
REMARK                         _______ _______ _______ _____ _____    ______ ____
ROOT
ATOM      1  C   GLY A   5      16.331  28.557  19.653  0.00  0.00    +0.243 C 
ATOM      2  O   GLY A   5      17.413  27.975  19.772  0.00  0.00    -0.273 OA
ATOM      3  N   ALA A   6      15.985  29.228  18.558  0.00  0.00    -0.297 N 
ATOM      4  H   ALA A   6      15.045  29.671  18.522  0.00  0.00    +0.150 HD
ENDROOT
BRANCH   3   5
ATOM      5  CA  ALA A   6      16.872  29.369  17.402  0.00  0.00    +0.149 C 
ATOM      6  CB  ALA A   6      16.074  29.179  16.117  0.00  0.00    +0.031 C 
BRANCH   5   7
ATOM      7  C   ALA A   6      17.560  30.739  17.389  0.00  0.00    +0.241 C 
ATOM      8  N   ASP A   7      18.895  30.754  17.421  0.00  0.00    -0.297 N 
ATOM      9  H   ASP A   7      19.413  29.853  17.466  0.00  0.00    +0.150 HD
ATOM     10  O   ALA A   6      16.883  31.763  17.335  0.00  0.00    -0.273 OA
BRANCH   8  11
ATOM     11  CA  ASP A   7      19.645  32.013  17.394  0.00  0.00    +0.160 C 
BRANCH  11  12
ATOM     12  C   ASP A   7      19.422  32.688  16.049  0.00  0.00    +0.241 C 
ATOM     13  O   ASP A   7      19.230  33.905  15.979  0.00  0.00    -0.273 OA
ATOM     14  N   ASP A   8      19.445  31.883  14.987  0.00  0.00    -0.297 N 
ATOM     15  H   ASP A   8      19.598  30.865  15.134  0.00  0.00    +0.150 HD
BRANCH  14  16
ATOM     16  CA  ASP A   8      19.264  32.377  13.627  0.00  0.00    +0.160 C 
BRANCH  16  17
ATOM     17  C   ASP A   8      18.070  31.783  12.901  0.00  0.00    +0.241 C 
ATOM     18  O   ASP A   8      17.526  30.754  13.300  0.00  0.00    -0.273 OA
ATOM     19  N   THR A   9      17.670  32.465  11.832  0.00  0.00    -0.295 N 
ATOM     20  H   THR A   9      18.171  33.344  11.591  0.00  0.00    +0.150 HD
BRANCH  19  21
ATOM     21  CA  THR A   9      16.570  32.045  10.985  0.00  0.00    +0.176 C 
BRANCH  21  22
ATOM     22  C   THR A   9      17.163  31.065   9.979  0.00  0.00    +0.243 C 
ATOM     23  N   VAL A  10      16.487  29.940   9.776  0.00  0.00    -0.298 N 
ATOM     24  H   VAL A  10      15.592  29.787  10.283  0.00  0.00    +0.150 HD
ATOM     25  O   THR A   9      18.225  31.321   9.409  0.00  0.00    -0.273 OA
BRANCH  23  26
ATOM     26  CA  VAL A  10      16.971  28.913   8.857  0.00  0.00    +0.137 C 
BRANCH  26  27
ATOM     27  CB  VAL A  10      17.508  27.678   9.647  0.00  0.00    +0.026 C 
ATOM     28  CG2 VAL A  10      18.327  28.121  10.850  0.00  0.00    +0.002 C 
ATOM     29  CG1 VAL A  10      18.316  26.765   8.735  0.00  0.00    +0.002 C 
ENDBRANCH  26  27
BRANCH  26  30
ATOM     30  C   VAL A  10      15.845  28.448   7.927  0.00  0.00    +0.227 C 
ATOM     31  O   VAL A  10      14.804  27.988   8.388  0.00  0.00    -0.286 OA
ENDBRANCH  26  30
ENDBRANCH  23  26
ENDBRANCH  21  22
BRANCH  21  32
ATOM     32  CB  THR A   9      15.972  33.254  10.253  0.00  0.00    +0.137 C 
ATOM     33  CG2 THR A   9      14.960  32.810   9.208  0.00  0.00    +0.034 C 
BRANCH  32  34
ATOM     34  OG1 THR A   9      15.349  34.122  11.211  0.00  0.00    -0.382 OA
ATOM     35  HG1 THR A   9      16.026  34.429  11.865  0.00  0.00    +0.210 HD
ENDBRANCH  32  34
ENDBRANCH  21  32
ENDBRANCH  19  21
ENDBRANCH  16  17
BRANCH  16  36
ATOM     36  CB  ASP A   8      20.520  32.107  12.798  0.00  0.00    +0.143 C 
BRANCH  36  37
ATOM     37  CG  ASP A   8      21.683  33.003  13.184  0.00  0.00    +0.367 C 
ATOM     38  OD2 ASP A   8      22.647  32.503  13.797  0.00  0.00    -0.246 OA
ATOM     39  OD1 ASP A   8      21.627  34.208  12.874  0.00  0.00    -0.246 OA
ENDBRANCH  36  37
ENDBRANCH  16  36
ENDBRANCH  14  16
ENDBRANCH  11  12
BRANCH  11  40
ATOM     40  CB  ASP A   7      21.155  31.783  17.554  0.00  0.00    +0.143 C 
BRANCH  40  41
ATOM     41  CG  ASP A   7      21.532  31.178  18.896  0.00  0.00    +0.367 C 
ATOM     42  OD2 ASP A   7      20.779  31.346  19.880  0.00  0.00    -0.246 OA
ATOM     43  OD1 ASP A   7      22.603  30.533  18.956  0.00  0.00    -0.246 OA
ENDBRANCH  40  41
ENDBRANCH  11  40
ENDBRANCH   8  11
ENDBRANCH   5   7
ENDBRANCH   3   5
BRANCH   1  44
ATOM     44  CA  GLY A   5      15.301  28.507  20.769  0.00  0.00    +0.176 C 
BRANCH  44  47
ATOM     45  C   THR A   4      14.120  30.627  20.859  0.00  0.00    +0.243 C 
ATOM     46  O   THR A   4      15.061  31.176  21.434  0.00  0.00    -0.273 OA
ATOM     47  N   GLY A   5      14.131  29.335  20.525  0.00  0.00    -0.295 N 
ATOM     48  H   GLY A   5      13.289  28.914  20.083  0.00  0.00    +0.150 HD
BRANCH  45  49
ATOM     49  CA  THR A   4      12.836  31.407  20.547  0.00  0.00    +0.176 C 
BRANCH  49  51
ATOM     50  C   ASP A   3      12.353  30.607  18.284  0.00  0.00    +0.241 C 
ATOM     51  N   THR A   4      12.007  30.707  19.567  0.00  0.00    -0.295 N 
ATOM     52  H   THR A   4      11.116  30.272  19.882  0.00  0.00    +0.150 HD
ATOM     53  O   ASP A   3      13.426  31.011  17.850  0.00  0.00    -0.273 OA
BRANCH  50  54
ATOM     54  CA  ASP A   3      11.394  29.833  17.374  0.00  0.00    +0.160 C 
BRANCH  54  57
ATOM     55  C   LEU A   2       9.230  30.562  16.547  0.00  0.00    +0.241 C 
ATOM     56  O   LEU A   2       8.624  29.996  17.461  0.00  0.00    -0.273 OA
ATOM     57  N   ASP A   3      10.555  30.591  16.463  0.00  0.00    -0.297 N 
ATOM     58  H   ASP A   3      11.003  31.172  15.726  0.00  0.00    +0.150 HD
BRANCH  55  59
ATOM     59  CA  LEU A   2       8.481  31.311  15.441  0.00  0.00    +0.149 C 
BRANCH  59  61
ATOM     60  C   LEU A   1       8.801  29.543  13.776  0.00  0.00    +0.238 C 
ATOM     61  N   LEU A   2       7.979  30.249  14.558  0.00  0.00    -0.297 N 
ATOM     62  H   LEU A   2       6.960  30.042  14.541  0.00  0.00    +0.150 HD
ATOM     63  O   LEU A   1      10.002  29.781  13.686  0.00  0.00    -0.274 OA
BRANCH  60  64
ATOM     64  CA  LEU A   1       8.175  28.425  12.939  0.00  0.00    +0.145 C 
BRANCH  64  65
ATOM     65  N   LEU A   1       8.375  28.582  11.505  0.00  0.00    -0.238 NA
ATOM     66  H   LEU A   1       9.292  28.308  11.099  0.00  0.00    +0.142 HD
ENDBRANCH  64  65
BRANCH  64  67
ATOM     67  CB  LEU A   1       8.773  27.074  13.343  0.00  0.00    +0.026 C 
BRANCH  67  68
ATOM     68  CG  LEU A   1       8.575  26.490  14.730  0.00  0.00    +0.002 C 
ATOM     69  CD2 LEU A   1       7.103  26.243  14.982  0.00  0.00    +0.000 C 
ATOM     70  CD1 LEU A   1       9.363  25.187  14.812  0.00  0.00    +0.000 C 
ENDBRANCH  67  68
ENDBRANCH  64  67
ENDBRANCH  60  64
ENDBRANCH  59  61
BRANCH  59  71
ATOM     71  CB  LEU A   2       7.329  32.120  16.029  0.00  0.00    +0.029 C 
BRANCH  71  72
ATOM     72  CG  LEU A   2       6.454  32.866  15.022  0.00  0.00    +0.002 C 
ATOM     73  CD2 LEU A   2       5.282  33.498  15.751  0.00  0.00    +0.000 C 
ATOM     74  CD1 LEU A   2       7.267  33.935  14.301  0.00  0.00    +0.000 C 
ENDBRANCH  71  72
ENDBRANCH  59  71
ENDBRANCH  55  59
ENDBRANCH  54  57
BRANCH  54  75
ATOM     75  CB  ASP A   3      12.170  28.837  16.513  0.00  0.00    +0.143 C 
BRANCH  75  76
ATOM     76  CG  ASP A   3      12.824  27.741  17.314  0.00  0.00    +0.367 C 
ATOM     77  OD2 ASP A   3      12.718  27.740  18.556  0.00  0.00    -0.246 OA
ATOM     78  OD1 ASP A   3      13.449  26.872  16.673  0.00  0.00    -0.246 OA
ENDBRANCH  75  76
ENDBRANCH  54  75
ENDBRANCH  50  54
ENDBRANCH  49  51
BRANCH  49  79
ATOM     79  CB  THR A   4      12.067  31.655  21.870  0.00  0.00    +0.137 C 
ATOM     80  CG2 THR A   4      10.839  32.519  21.628  0.00  0.00    +0.034 C 
BRANCH  79  81
ATOM     81  OG1 THR A   4      11.650  30.402  22.430  0.00  0.00    -0.382 OA
ATOM     82  HG1 THR A   4      12.446  29.842  22.613  0.00  0.00    +0.210 HD
ENDBRANCH  79  81
ENDBRANCH  49  79
ENDBRANCH  45  49
ENDBRANCH  44  47
ENDBRANCH   1  44
TORSDOF 35
REMARK  Name = ../refined-set-2016/2i4d/2i4d_pocket.pdb
REMARK  229 active torsions:
REMARK  status: ('A' for Active; 'I' for Inactive)
REMARK    1  A    between atoms: _1  and  _3
REMARK    2  A    between atoms: _3  and  _4
REMARK    3  A    between atoms: _3  and  _6
REMARK    4  A    between atoms: _6  and  _7
REMARK    5  A    between atoms: _7  and  _8
REMARK    6  A    between atoms: _8  and  _9
REMARK    7  A    between atoms: _18  and  _20
REMARK    8  A    between atoms: _20  and  _21
REMARK    9  A    between atoms: _20  and  _23
REMARK   10  A    between atoms: _23  and  _24
REMARK   11  A    between atoms: _27  and  _29
REMARK   12  A    between atoms: _29  and  _30
REMARK   13  A    between atoms: _29  and  _32
REMARK   14  A    between atoms: _32  and  _33
REMARK   15  A    between atoms: _36  and  _38
REMARK   16  A    between atoms: _38  and  _39
REMARK   17  A    between atoms: _38  and  _41
REMARK   18  A    between atoms: _41  and  _42
REMARK   19  A    between atoms: _45  and  _47
REMARK   20  A    between atoms: _47  and  _48
REMARK   21  A    between atoms: _47  and  _50
REMARK   22  A    between atoms: _50  and  _51
REMARK   23  A    between atoms: _54  and  _56
REMARK   24  A    between atoms: _56  and  _57
REMARK   25  A    between atoms: _59  and  _61
REMARK   26  A    between atoms: _61  and  _62
REMARK   27  A    between atoms: _65  and  _67
REMARK   28  A    between atoms: _67  and  _68
REMARK   29  A    between atoms: _67  and  _70
REMARK   30  A    between atoms: _70  and  _71
REMARK   31  A    between atoms: _74  and  _76
REMARK   32  A    between atoms: _76  and  _77
REMARK   33  A    between atoms: _76  and  _79
REMARK   34  A    between atoms: _79  and  _80
REMARK   35  A    between atoms: _83  and  _85
REMARK   36  A    between atoms: _85  and  _86
REMARK   37  A    between atoms: _85  and  _88
REMARK   38  A    between atoms: _88  and  _89
REMARK   39  A    between atoms: _92  and  _94
REMARK   40  A    between atoms: _94  and  _95
REMARK   41  A    between atoms: _94  and  _97
REMARK   42  A    between atoms: _100  and  _102
REMARK   43  A    between atoms: _102  and  _103
REMARK   44  A    between atoms: _102  and  _105
REMARK   45  A    between atoms: _105  and  _106
REMARK   46  A    between atoms: _106  and  _107
REMARK   47  A    between atoms: _107  and  _108
REMARK   48  A    between atoms: _108  and  _109
REMARK   49  A    between atoms: _113  and  _115
REMARK   50  A    between atoms: _115  and  _116
REMARK   51  A    between atoms: _115  and  _118
REMARK   52  A    between atoms: _118  and  _119
REMARK   53  A    between atoms: _119  and  _120
REMARK   54  A    between atoms: _122  and  _124
REMARK   55  A    between atoms: _124  and  _125
REMARK   56  A    between atoms: _124  and  _127
REMARK   57  A    between atoms: _127  and  _128
REMARK   58  A    between atoms: _131  and  _133
REMARK   59  A    between atoms: _133  and  _134
REMARK   60  A    between atoms: _136  and  _138
REMARK   61  A    between atoms: _138  and  _139
REMARK   62  A    between atoms: _141  and  _143
REMARK   63  A    between atoms: _143  and  _144
REMARK   64  A    between atoms: _143  and  _146
REMARK   65  A    between atoms: _146  and  _147
REMARK   66  A    between atoms: _150  and  _152
REMARK   67  A    between atoms: _152  and  _153
REMARK   68  A    between atoms: _155  and  _157
REMARK   69  A    between atoms: _157  and  _158
REMARK   70  A    between atoms: _160  and  _162
REMARK   71  A    between atoms: _162  and  _163
REMARK   72  A    between atoms: _162  and  _165
REMARK   73  A    between atoms: _165  and  _166
REMARK   74  A    between atoms: _172  and  _174
REMARK   75  A    between atoms: _174  and  _175
REMARK   76  A    between atoms: _174  and  _177
REMARK   77  A    between atoms: _177  and  _178
REMARK   78  A    between atoms: _181  and  _183
REMARK   79  A    between atoms: _183  and  _184
REMARK   80  A    between atoms: _183  and  _186
REMARK   81  A    between atoms: _189  and  _191
REMARK   82  A    between atoms: _191  and  _192
REMARK   83  A    between atoms: _191  and  _194
REMARK   84  A    between atoms: _194  and  _195
REMARK   85  A    between atoms: _198  and  _200
REMARK   86  A    between atoms: _200  and  _201
REMARK   87  A    between atoms: _200  and  _203
REMARK   88  A    between atoms: _203  and  _204
REMARK   89  A    between atoms: _208  and  _209
REMARK   90  A    between atoms: _214  and  _216
REMARK   91  A    between atoms: _216  and  _217
REMARK   92  A    between atoms: _216  and  _219
REMARK   93  A    between atoms: _222  and  _224
REMARK   94  A    between atoms: _224  and  _225
REMARK   95  A    between atoms: _224  and  _227
REMARK   96  A    between atoms: _227  and  _228
REMARK   97  A    between atoms: _233  and  _235
REMARK   98  A    between atoms: _235  and  _236
REMARK   99  A    between atoms: _235  and  _238
REMARK  100  A    between atoms: _238  and  _239
REMARK  101  A    between atoms: _242  and  _244
REMARK  102  A    between atoms: _244  and  _245
REMARK  103  A    between atoms: _244  and  _247
REMARK  104  A    between atoms: _247  and  _248
REMARK  105  A    between atoms: _251  and  _253
REMARK  106  A    between atoms: _253  and  _254
REMARK  107  A    between atoms: _256  and  _258
REMARK  108  A    between atoms: _258  and  _259
REMARK  109  A    between atoms: _258  and  _261
REMARK  110  A    between atoms: _261  and  _262
REMARK  111  A    between atoms: _262  and  _263
REMARK  112  A    between atoms: _263  and  _264
REMARK  113  A    between atoms: _273  and  _275
REMARK  114  A    between atoms: _275  and  _276
REMARK  115  A    between atoms: _275  and  _278
REMARK  116  A    between atoms: _278  and  _279
REMARK  117  A    between atoms: _284  and  _286
REMARK  118  A    between atoms: _286  and  _287
REMARK  119  A    between atoms: _286  and  _289
REMARK  120  A    between atoms: _289  and  _290
REMARK  121  A    between atoms: _290  and  _291
REMARK  122  A    between atoms: _291  and  _292
REMARK  123  A    between atoms: _301  and  _303
REMARK  124  A    between atoms: _303  and  _304
REMARK  125  A    between atoms: _303  and  _306
REMARK  126  A    between atoms: _306  and  _307
REMARK  127  A    between atoms: _310  and  _312
REMARK  128  A    between atoms: _312  and  _313
REMARK  129  A    between atoms: _312  and  _315
REMARK  130  A    between atoms: _315  and  _316
REMARK  131  A    between atoms: _319  and  _321
REMARK  132  A    between atoms: _321  and  _322
REMARK  133  A    between atoms: _321  and  _324
REMARK  134  A    between atoms: _324  and  _325
REMARK  135  A    between atoms: _328  and  _330
REMARK  136  A    between atoms: _330  and  _331
REMARK  137  A    between atoms: _330  and  _333
REMARK  138  A    between atoms: _333  and  _334
REMARK  139  A    between atoms: _337  and  _339
REMARK  140  A    between atoms: _339  and  _340
REMARK  141  A    between atoms: _342  and  _344
REMARK  142  A    between atoms: _344  and  _345
REMARK  143  A    between atoms: _348  and  _350
REMARK  144  A    between atoms: _350  and  _351
REMARK  145  A    between atoms: _350  and  _353
REMARK  146  A    between atoms: _353  and  _354
REMARK  147  A    between atoms: _357  and  _359
REMARK  148  A    between atoms: _359  and  _360
REMARK  149  A    between atoms: _359  and  _362
REMARK  150  A    between atoms: _362  and  _363
REMARK  151  A    between atoms: _366  and  _368
REMARK  152  A    between atoms: _368  and  _369
REMARK  153  A    between atoms: _368  and  _371
REMARK  154  A    between atoms: _371  and  _372
REMARK  155  A    between atoms: _375  and  _377
REMARK  156  A    between atoms: _377  and  _378
REMARK  157  A    between atoms: _377  and  _380
REMARK  158  A    between atoms: _383  and  _385
REMARK  159  A    between atoms: _385  and  _386
REMARK  160  A    between atoms: _385  and  _388
REMARK  161  A    between atoms: _388  and  _389
REMARK  162  A    between atoms: _389  and  _390
REMARK  163  A    between atoms: _390  and  _391
REMARK  164  A    between atoms: _391  and  _392
REMARK  165  A    between atoms: _396  and  _398
REMARK  166  A    between atoms: _398  and  _399
REMARK  167  A    between atoms: _398  and  _401
REMARK  168  A    between atoms: _401  and  _402
REMARK  169  A    between atoms: _402  and  _403
REMARK  170  A    between atoms: _405  and  _407
REMARK  171  A    between atoms: _407  and  _408
REMARK  172  A    between atoms: _407  and  _410
REMARK  173  A    between atoms: _410  and  _411
REMARK  174  A    between atoms: _414  and  _416
REMARK  175  A    between atoms: _416  and  _417
REMARK  176  A    between atoms: _419  and  _421
REMARK  177  A    between atoms: _421  and  _422
REMARK  178  A    between atoms: _424  and  _426
REMARK  179  A    between atoms: _426  and  _427
REMARK  180  A    between atoms: _426  and  _429
REMARK  181  A    between atoms: _429  and  _430
REMARK  182  A    between atoms: _433  and  _435
REMARK  183  A    between atoms: _435  and  _436
REMARK  184  A    between atoms: _438  and  _440
REMARK  185  A    between atoms: _440  and  _441
REMARK  186  A    between atoms: _443  and  _445
REMARK  187  A    between atoms: _445  and  _446
REMARK  188  A    between atoms: _445  and  _448
REMARK  189  A    between atoms: _448  and  _449
REMARK  190  A    between atoms: _455  and  _457
REMARK  191  A    between atoms: _457  and  _458
REMARK  192  A    between atoms: _457  and  _460
REMARK  193  A    between atoms: _460  and  _461
REMARK  194  A    between atoms: _464  and  _466
REMARK  195  A    between atoms: _466  and  _467
REMARK  196  A    between atoms: _466  and  _469
REMARK  197  A    between atoms: _469  and  _470
REMARK  198  A    between atoms: _473  and  _475
REMARK  199  A    between atoms: _475  and  _476
REMARK  200  A    between atoms: _475  and  _478
REMARK  201  A    between atoms: _478  and  _479
REMARK  202  A    between atoms: _483  and  _484
REMARK  203  A    between atoms: _489  and  _491
REMARK  204  A    between atoms: _491  and  _492
REMARK  205  A    between atoms: _491  and  _494
REMARK  206  A    between atoms: _497  and  _499
REMARK  207  A    between atoms: _499  and  _500
REMARK  208  A    between atoms: _499  and  _502
REMARK  209  A    between atoms: _502  and  _503
REMARK  210  A    between atoms: _508  and  _510
REMARK  211  A    between atoms: _510  and  _511
REMARK  212  A    between atoms: _510  and  _513
REMARK  213  A    between atoms: _513  and  _514
REMARK  214  A    between atoms: _517  and  _519
REMARK  215  A    between atoms: _519  and  _520
REMARK  216  A    between atoms: _519  and  _522
REMARK  217  A    between atoms: _522  and  _523
REMARK  218  A    between atoms: _526  and  _528
REMARK  219  A    between atoms: _528  and  _529
REMARK  220  A    between atoms: _531  and  _533
REMARK  221  A    between atoms: _533  and  _534
REMARK  222  A    between atoms: _533  and  _536
REMARK  223  A    between atoms: _536  and  _537
REMARK  224  A    between atoms: _537  and  _538
REMARK  225  A    between atoms: _538  and  _539
REMARK  226  A    between atoms: _548  and  _550
REMARK  227  A    between atoms: _550  and  _551
REMARK  228  A    between atoms: _550  and  _553
REMARK  229  A    between atoms: _553  and  _554
REMARK                            x       y       z     vdW  Elec       q    Type
REMARK                         _______ _______ _______ _____ _____    ______ ____
ROOT
ATOM      1  C   GLY A   5      20.787  19.570  17.516  0.00  0.00    +0.243 C 
ATOM      2  N   ILE A   6      19.557  19.183  17.822  0.00  0.00    -0.297 N 
ATOM      3  H   ILE A   6      18.789  19.883  17.858  0.00  0.00    +0.150 HD
ATOM      4  O   GLY A   5      21.747  18.794  17.518  0.00  0.00    -0.273 OA
ENDROOT
BRANCH   1   5
ATOM      5  CA  GLY A   5      20.984  21.033  17.193  0.00  0.00    +0.176 C 
BRANCH   5   8
ATOM      6  C   GLY A   4      22.799  22.287  16.175  0.00  0.00    +0.243 C 
ATOM      7  O   GLY A   4      22.502  23.329  16.760  0.00  0.00    -0.273 OA
ATOM      8  N   GLY A   5      22.126  21.148  16.306  0.00  0.00    -0.295 N 
ATOM      9  H   GLY A   5      22.426  20.317  15.758  0.00  0.00    +0.150 HD
BRANCH   6  10
ATOM     10  CA  GLY A   4      23.976  22.223  15.233  0.00  0.00    +0.176 C 
BRANCH  10  12
ATOM     11  C   ILE A   3      24.408  23.536  13.268  0.00  0.00    +0.241 C 
ATOM     12  N   GLY A   4      24.351  23.466  14.593  0.00  0.00    -0.295 N 
ATOM     13  H   GLY A   4      24.575  24.302  15.169  0.00  0.00    +0.150 HD
ATOM     14  O   ILE A   3      24.151  22.582  12.541  0.00  0.00    -0.273 OA
BRANCH  11  15
ATOM     15  CA  ILE A   3      24.844  24.877  12.677  0.00  0.00    +0.149 C 
BRANCH  15  18
ATOM     16  C   MET A   2      26.904  25.120  11.423  0.00  0.00    +0.241 C 
ATOM     17  O   MET A   2      27.399  25.826  12.299  0.00  0.00    -0.273 OA
ATOM     18  N   ILE A   3      25.664  24.647  11.494  0.00  0.00    -0.297 N 
ATOM     19  H   ILE A   3      25.274  24.106  10.696  0.00  0.00    +0.150 HD
BRANCH  16  20
ATOM     20  CA  MET A   2      27.686  24.802  10.159  0.00  0.00    +0.149 C 
BRANCH  20  22
ATOM     21  C   LYS A   1      27.831  26.483   8.387  0.00  0.00    +0.238 C 
ATOM     22  N   MET A   2      28.151  26.068   9.608  0.00  0.00    -0.297 N 
ATOM     23  H   MET A   2      28.760  26.673  10.196  0.00  0.00    +0.150 HD
ATOM     24  O   LYS A   1      27.186  25.808   7.599  0.00  0.00    -0.274 OA
BRANCH  21  25
ATOM     25  CA  LYS A   1      28.366  27.854   7.980  0.00  0.00    +0.145 C 
BRANCH  25  26
ATOM     26  N   LYS A   1      28.467  27.936   6.531  0.00  0.00    -0.238 NA
ATOM     27  H   LYS A   1      27.756  27.451   5.947  0.00  0.00    +0.142 HD
ENDBRANCH  25  26
BRANCH  25  28
ATOM     28  CB  LYS A   1      27.421  28.954   8.493  0.00  0.00    +0.026 C 
BRANCH  28  29
ATOM     29  CG  LYS A   1      27.395  29.127  10.004  0.00  0.00    -0.000 C 
BRANCH  29  30
ATOM     30  CD  LYS A   1      26.344  30.137  10.427  0.00  0.00    -0.024 C 
BRANCH  30  31
ATOM     31  CE  LYS A   1      26.372  30.373  11.924  0.00  0.00    -0.086 C 
BRANCH  31  32
ATOM     32  NZ  LYS A   1      27.674  30.954  12.365  0.00  0.00    +0.380 N 
ATOM     33  HZ1 LYS A   1      27.656  31.101  13.394  0.00  0.00    -0.089 HD
ATOM     34  HZ2 LYS A   1      28.445  30.300  12.121  0.00  0.00    -0.089 HD
ATOM     35  HZ3 LYS A   1      27.826  31.864  11.886  0.00  0.00    -0.089 HD
ENDBRANCH  31  32
ENDBRANCH  30  31
ENDBRANCH  29  30
ENDBRANCH  28  29
ENDBRANCH  25  28
ENDBRANCH  21  25
ENDBRANCH  20  22
BRANCH  20  36
ATOM     36  CB  MET A   2      28.869  23.890  10.511  0.00  0.00    +0.041 C 
BRANCH  36  37
ATOM     37  CG  MET A   2      29.522  23.196   9.308  0.00  0.00    +0.060 C 
BRANCH  37  38
ATOM     38  SD  MET A   2      28.610  21.754   8.701  0.00  0.00    -0.139 S 
ATOM     39  CE  MET A   2      29.051  20.540  10.010  0.00  0.00    +0.069 C 
ENDBRANCH  37  38
ENDBRANCH  36  37
ENDBRANCH  20  36
ENDBRANCH  16  20
ENDBRANCH  15  18
BRANCH  15  40
ATOM     40  CB  ILE A   3      23.616  25.778  12.377  0.00  0.00    +0.027 C 
ATOM     41  CG2 ILE A   3      24.063  27.225  12.146  0.00  0.00    +0.002 C 
BRANCH  40  42
ATOM     42  CG1 ILE A   3      22.821  25.228  11.188  0.00  0.00    +0.002 C 
ATOM     43  CD1 ILE A   3      21.526  25.968  10.922  0.00  0.00    +0.000 C 
ENDBRANCH  40  42
ENDBRANCH  15  40
ENDBRANCH  11  15
ENDBRANCH  10  12
ENDBRANCH   6  10
ENDBRANCH   5   8
ENDBRANCH   1   5
BRANCH   2  44
ATOM     44  CA  ILE A   6      19.273  17.781  18.108  0.00  0.00    +0.149 C 
BRANCH  44  45
ATOM     45  C   ILE A   6      19.509  17.003  16.811  0.00  0.00    +0.241 C 
ATOM     46  N   GLY A   7      20.278  15.924  16.915  0.00  0.00    -0.295 N 
ATOM     47  H   GLY A   7      20.660  15.652  17.843  0.00  0.00    +0.150 HD
ATOM     48  O   ILE A   6      19.067  17.414  15.734  0.00  0.00    -0.273 OA
BRANCH  46  49
ATOM     49  CA  GLY A   7      20.589  15.123  15.748  0.00  0.00    +0.176 C 
BRANCH  49  50
ATOM     50  C   GLY A   7      21.894  15.524  15.081  0.00  0.00    +0.243 C 
ATOM     51  N   GLY A   8      22.556  16.567  15.583  0.00  0.00    -0.295 N 
ATOM     52  H   GLY A   8      22.171  17.081  16.401  0.00  0.00    +0.150 HD
ATOM     53  O   GLY A   7      22.288  14.900  14.099  0.00  0.00    -0.273 OA
BRANCH  51  54
ATOM     54  CA  GLY A   8      23.815  16.987  14.990  0.00  0.00    +0.176 C 
BRANCH  54  55
ATOM     55  C   GLY A   8      23.790  18.250  14.140  0.00  0.00    +0.243 C 
ATOM     56  O   GLY A   8      22.855  19.049  14.216  0.00  0.00    -0.273 OA
ATOM     57  N   PHE A   9      24.810  18.402  13.296  0.00  0.00    -0.297 N 
ATOM     58  H   PHE A   9      25.526  17.650  13.244  0.00  0.00    +0.150 HD
BRANCH  57  59
ATOM     59  CA  PHE A   9      24.970  19.579  12.438  0.00  0.00    +0.153 C 
BRANCH  59  60
ATOM     60  C   PHE A   9      24.549  19.444  10.975  0.00  0.00    +0.241 C 
ATOM     61  O   PHE A   9      24.499  18.346  10.421  0.00  0.00    -0.273 OA
ATOM     62  N   ILE A  10      24.245  20.589  10.363  0.00  0.00    -0.298 N 
ATOM     63  H   ILE A  10      24.244  21.465  10.924  0.00  0.00    +0.150 HD
BRANCH  62  64
ATOM     64  CA  ILE A  10      23.912  20.673   8.937  0.00  0.00    +0.137 C 
BRANCH  64  65
ATOM     65  CB  ILE A  10      22.376  20.808   8.627  0.00  0.00    +0.026 C 
ATOM     66  CG2 ILE A  10      21.620  19.576   9.096  0.00  0.00    +0.002 C 
BRANCH  65  67
ATOM     67  CG1 ILE A  10      21.791  22.092   9.218  0.00  0.00    +0.002 C 
ATOM     68  CD1 ILE A  10      20.410  22.434   8.668  0.00  0.00    +0.000 C 
ENDBRANCH  65  67
ENDBRANCH  64  65
BRANCH  64  69
ATOM     69  C   ILE A  10      24.655  21.893   8.380  0.00  0.00    +0.227 C 
ATOM     70  O   ILE A  10      24.860  22.878   9.090  0.00  0.00    -0.286 OA
ENDBRANCH  64  69
ENDBRANCH  62  64
ENDBRANCH  59  60
BRANCH  59  71
ATOM     71  CB  PHE A   9      26.442  20.033  12.444  0.00  0.00    +0.055 C 
BRANCH  71  72
ATOM     72  CG  PHE A   9      26.939  20.519  13.779  0.00  0.00    -0.020 A 
ATOM     73  CD2 PHE A   9      27.167  19.628  14.825  0.00  0.00    -0.004 A 
ATOM     74  CE2 PHE A   9      27.658  20.076  16.051  0.00  0.00    -0.000 A 
ATOM     75  CZ  PHE A   9      27.925  21.422  16.240  0.00  0.00    -0.000 A 
ATOM     76  CE1 PHE A   9      27.703  22.324  15.207  0.00  0.00    -0.000 A 
ATOM     77  CD1 PHE A   9      27.210  21.868  13.983  0.00  0.00    -0.004 A 
ENDBRANCH  71  72
ENDBRANCH  59  71
ENDBRANCH  57  59
ENDBRANCH  54  55
ENDBRANCH  51  54
ENDBRANCH  49  50
ENDBRANCH  46  49
ENDBRANCH  44  45
BRANCH  44  78
ATOM     78  CB  ILE A   6      17.830  17.604  18.633  0.00  0.00    +0.027 C 
ATOM     79  CG2 ILE A   6      17.385  16.147  18.542  0.00  0.00    +0.002 C 
BRANCH  78  80
ATOM     80  CG1 ILE A   6      17.756  18.115  20.075  0.00  0.00    +0.002 C 
ATOM     81  CD1 ILE A   6      16.382  18.039  20.688  0.00  0.00    +0.000 C 
ENDBRANCH  78  80
ENDBRANCH  44  78
ENDBRANCH   2  44
TORSDOF 36
REMARK  Name = ../refined-set-2016/2i4d/2i4d_pocket.pdb
REMARK  229 active torsions:
REMARK  status: ('A' for Active; 'I' for Inactive)
REMARK    1  A    between atoms: _1  and  _3
REMARK    2  A    between atoms: _3  and  _4
REMARK    3  A    between atoms: _3  and  _6
REMARK    4  A    between atoms: _6  and  _7
REMARK    5  A    between atoms: _7  and  _8
REMARK    6  A    between atoms: _8  and  _9
REMARK    7  A    between atoms: _18  and  _20
REMARK    8  A    between atoms: _20  and  _21
REMARK    9  A    between atoms: _20  and  _23
REMARK   10  A    between atoms: _23  and  _24
REMARK   11  A    between atoms: _27  and  _29
REMARK   12  A    between atoms: _29  and  _30
REMARK   13  A    between atoms: _29  and  _32
REMARK   14  A    between atoms: _32  and  _33
REMARK   15  A    between atoms: _36  and  _38
REMARK   16  A    between atoms: _38  and  _39
REMARK   17  A    between atoms: _38  and  _41
REMARK   18  A    between atoms: _41  and  _42
REMARK   19  A    between atoms: _45  and  _47
REMARK   20  A    between atoms: _47  and  _48
REMARK   21  A    between atoms: _47  and  _50
REMARK   22  A    between atoms: _50  and  _51
REMARK   23  A    between atoms: _54  and  _56
REMARK   24  A    between atoms: _56  and  _57
REMARK   25  A    between atoms: _59  and  _61
REMARK   26  A    between atoms: _61  and  _62
REMARK   27  A    between atoms: _65  and  _67
REMARK   28  A    between atoms: _67  and  _68
REMARK   29  A    between atoms: _67  and  _70
REMARK   30  A    between atoms: _70  and  _71
REMARK   31  A    between atoms: _74  and  _76
REMARK   32  A    between atoms: _76  and  _77
REMARK   33  A    between atoms: _76  and  _79
REMARK   34  A    between atoms: _79  and  _80
REMARK   35  A    between atoms: _83  and  _85
REMARK   36  A    between atoms: _85  and  _86
REMARK   37  A    between atoms: _85  and  _88
REMARK   38  A    between atoms: _88  and  _89
REMARK   39  A    between atoms: _92  and  _94
REMARK   40  A    between atoms: _94  and  _95
REMARK   41  A    between atoms: _94  and  _97
REMARK   42  A    between atoms: _100  and  _102
REMARK   43  A    between atoms: _102  and  _103
REMARK   44  A    between atoms: _102  and  _105
REMARK   45  A    between atoms: _105  and  _106
REMARK   46  A    between atoms: _106  and  _107
REMARK   47  A    between atoms: _107  and  _108
REMARK   48  A    between atoms: _108  and  _109
REMARK   49  A    between atoms: _113  and  _115
REMARK   50  A    between atoms: _115  and  _116
REMARK   51  A    between atoms: _115  and  _118
REMARK   52  A    between atoms: _118  and  _119
REMARK   53  A    between atoms: _119  and  _120
REMARK   54  A    between atoms: _122  and  _124
REMARK   55  A    between atoms: _124  and  _125
REMARK   56  A    between atoms: _124  and  _127
REMARK   57  A    between atoms: _127  and  _128
REMARK   58  A    between atoms: _131  and  _133
REMARK   59  A    between atoms: _133  and  _134
REMARK   60  A    between atoms: _136  and  _138
REMARK   61  A    between atoms: _138  and  _139
REMARK   62  A    between atoms: _141  and  _143
REMARK   63  A    between atoms: _143  and  _144
REMARK   64  A    between atoms: _143  and  _146
REMARK   65  A    between atoms: _146  and  _147
REMARK   66  A    between atoms: _150  and  _152
REMARK   67  A    between atoms: _152  and  _153
REMARK   68  A    between atoms: _155  and  _157
REMARK   69  A    between atoms: _157  and  _158
REMARK   70  A    between atoms: _160  and  _162
REMARK   71  A    between atoms: _162  and  _163
REMARK   72  A    between atoms: _162  and  _165
REMARK   73  A    between atoms: _165  and  _166
REMARK   74  A    between atoms: _172  and  _174
REMARK   75  A    between atoms: _174  and  _175
REMARK   76  A    between atoms: _174  and  _177
REMARK   77  A    between atoms: _177  and  _178
REMARK   78  A    between atoms: _181  and  _183
REMARK   79  A    between atoms: _183  and  _184
REMARK   80  A    between atoms: _183  and  _186
REMARK   81  A    between atoms: _189  and  _191
REMARK   82  A    between atoms: _191  and  _192
REMARK   83  A    between atoms: _191  and  _194
REMARK   84  A    between atoms: _194  and  _195
REMARK   85  A    between atoms: _198  and  _200
REMARK   86  A    between atoms: _200  and  _201
REMARK   87  A    between atoms: _200  and  _203
REMARK   88  A    between atoms: _203  and  _204
REMARK   89  A    between atoms: _208  and  _209
REMARK   90  A    between atoms: _214  and  _216
REMARK   91  A    between atoms: _216  and  _217
REMARK   92  A    between atoms: _216  and  _219
REMARK   93  A    between atoms: _222  and  _224
REMARK   94  A    between atoms: _224  and  _225
REMARK   95  A    between atoms: _224  and  _227
REMARK   96  A    between atoms: _227  and  _228
REMARK   97  A    between atoms: _233  and  _235
REMARK   98  A    between atoms: _235  and  _236
REMARK   99  A    between atoms: _235  and  _238
REMARK  100  A    between atoms: _238  and  _239
REMARK  101  A    between atoms: _242  and  _244
REMARK  102  A    between atoms: _244  and  _245
REMARK  103  A    between atoms: _244  and  _247
REMARK  104  A    between atoms: _247  and  _248
REMARK  105  A    between atoms: _251  and  _253
REMARK  106  A    between atoms: _253  and  _254
REMARK  107  A    between atoms: _256  and  _258
REMARK  108  A    between atoms: _258  and  _259
REMARK  109  A    between atoms: _258  and  _261
REMARK  110  A    between atoms: _261  and  _262
REMARK  111  A    between atoms: _262  and  _263
REMARK  112  A    between atoms: _263  and  _264
REMARK  113  A    between atoms: _273  and  _275
REMARK  114  A    between atoms: _275  and  _276
REMARK  115  A    between atoms: _275  and  _278
REMARK  116  A    between atoms: _278  and  _279
REMARK  117  A    between atoms: _284  and  _286
REMARK  118  A    between atoms: _286  and  _287
REMARK  119  A    between atoms: _286  and  _289
REMARK  120  A    between atoms: _289  and  _290
REMARK  121  A    between atoms: _290  and  _291
REMARK  122  A    between atoms: _291  and  _292
REMARK  123  A    between atoms: _301  and  _303
REMARK  124  A    between atoms: _303  and  _304
REMARK  125  A    between atoms: _303  and  _306
REMARK  126  A    between atoms: _306  and  _307
REMARK  127  A    between atoms: _310  and  _312
REMARK  128  A    between atoms: _312  and  _313
REMARK  129  A    between atoms: _312  and  _315
REMARK  130  A    between atoms: _315  and  _316
REMARK  131  A    between atoms: _319  and  _321
REMARK  132  A    between atoms: _321  and  _322
REMARK  133  A    between atoms: _321  and  _324
REMARK  134  A    between atoms: _324  and  _325
REMARK  135  A    between atoms: _328  and  _330
REMARK  136  A    between atoms: _330  and  _331
REMARK  137  A    between atoms: _330  and  _333
REMARK  138  A    between atoms: _333  and  _334
REMARK  139  A    between atoms: _337  and  _339
REMARK  140  A    between atoms: _339  and  _340
REMARK  141  A    between atoms: _342  and  _344
REMARK  142  A    between atoms: _344  and  _345
REMARK  143  A    between atoms: _348  and  _350
REMARK  144  A    between atoms: _350  and  _351
REMARK  145  A    between atoms: _350  and  _353
REMARK  146  A    between atoms: _353  and  _354
REMARK  147  A    between atoms: _357  and  _359
REMARK  148  A    between atoms: _359  and  _360
REMARK  149  A    between atoms: _359  and  _362
REMARK  150  A    between atoms: _362  and  _363
REMARK  151  A    between atoms: _366  and  _368
REMARK  152  A    between atoms: _368  and  _369
REMARK  153  A    between atoms: _368  and  _371
REMARK  154  A    between atoms: _371  and  _372
REMARK  155  A    between atoms: _375  and  _377
REMARK  156  A    between atoms: _377  and  _378
REMARK  157  A    between atoms: _377  and  _380
REMARK  158  A    between atoms: _383  and  _385
REMARK  159  A    between atoms: _385  and  _386
REMARK  160  A    between atoms: _385  and  _388
REMARK  161  A    between atoms: _388  and  _389
REMARK  162  A    between atoms: _389  and  _390
REMARK  163  A    between atoms: _390  and  _391
REMARK  164  A    between atoms: _391  and  _392
REMARK  165  A    between atoms: _396  and  _398
REMARK  166  A    between atoms: _398  and  _399
REMARK  167  A    between atoms: _398  and  _401
REMARK  168  A    between atoms: _401  and  _402
REMARK  169  A    between atoms: _402  and  _403
REMARK  170  A    between atoms: _405  and  _407
REMARK  171  A    between atoms: _407  and  _408
REMARK  172  A    between atoms: _407  and  _410
REMARK  173  A    between atoms: _410  and  _411
REMARK  174  A    between atoms: _414  and  _416
REMARK  175  A    between atoms: _416  and  _417
REMARK  176  A    between atoms: _419  and  _421
REMARK  177  A    between atoms: _421  and  _422
REMARK  178  A    between atoms: _424  and  _426
REMARK  179  A    between atoms: _426  and  _427
REMARK  180  A    between atoms: _426  and  _429
REMARK  181  A    between atoms: _429  and  _430
REMARK  182  A    between atoms: _433  and  _435
REMARK  183  A    between atoms: _435  and  _436
REMARK  184  A    between atoms: _438  and  _440
REMARK  185  A    between atoms: _440  and  _441
REMARK  186  A    between atoms: _443  and  _445
REMARK  187  A    between atoms: _445  and  _446
REMARK  188  A    between atoms: _445  and  _448
REMARK  189  A    between atoms: _448  and  _449
REMARK  190  A    between atoms: _455  and  _457
REMARK  191  A    between atoms: _457  and  _458
REMARK  192  A    between atoms: _457  and  _460
REMARK  193  A    between atoms: _460  and  _461
REMARK  194  A    between atoms: _464  and  _466
REMARK  195  A    between atoms: _466  and  _467
REMARK  196  A    between atoms: _466  and  _469
REMARK  197  A    between atoms: _469  and  _470
REMARK  198  A    between atoms: _473  and  _475
REMARK  199  A    between atoms: _475  and  _476
REMARK  200  A    between atoms: _475  and  _478
REMARK  201  A    between atoms: _478  and  _479
REMARK  202  A    between atoms: _483  and  _484
REMARK  203  A    between atoms: _489  and  _491
REMARK  204  A    between atoms: _491  and  _492
REMARK  205  A    between atoms: _491  and  _494
REMARK  206  A    between atoms: _497  and  _499
REMARK  207  A    between atoms: _499  and  _500
REMARK  208  A    between atoms: _499  and  _502
REMARK  209  A    between atoms: _502  and  _503
REMARK  210  A    between atoms: _508  and  _510
REMARK  211  A    between atoms: _510  and  _511
REMARK  212  A    between atoms: _510  and  _513
REMARK  213  A    between atoms: _513  and  _514
REMARK  214  A    between atoms: _517  and  _519
REMARK  215  A    between atoms: _519  and  _520
REMARK  216  A    between atoms: _519  and  _522
REMARK  217  A    between atoms: _522  and  _523
REMARK  218  A    between atoms: _526  and  _528
REMARK  219  A    between atoms: _528  and  _529
REMARK  220  A    between atoms: _531  and  _533
REMARK  221  A    between atoms: _533  and  _534
REMARK  222  A    between atoms: _533  and  _536
REMARK  223  A    between atoms: _536  and  _537
REMARK  224  A    between atoms: _537  and  _538
REMARK  225  A    between atoms: _538  and  _539
REMARK  226  A    between atoms: _548  and  _550
REMARK  227  A    between atoms: _550  and  _551
REMARK  228  A    between atoms: _550  and  _553
REMARK  229  A    between atoms: _553  and  _554
REMARK                            x       y       z     vdW  Elec       q    Type
REMARK                         _______ _______ _______ _____ _____    ______ ____
ROOT
ATOM      1  CA  VAL A   1      24.120  26.100   5.401  0.00  0.00    +0.133 C 
ENDROOT
BRANCH   1   2
ATOM      2  CB  VAL A   1      23.168  26.692   6.481  0.00  0.00    +0.023 C 
ATOM      3  CG2 VAL A   1      23.972  27.353   7.597  0.00  0.00    +0.002 C 
ATOM      4  CG1 VAL A   1      22.254  25.612   7.048  0.00  0.00    +0.002 C 
ENDBRANCH   1   2
BRANCH   1   5
ATOM      5  N   VAL A   1      25.029  25.110   5.966  0.00  0.00    -0.239 NA
ATOM      6  H   VAL A   1      25.870  25.435   6.485  0.00  0.00    +0.142 HD
ENDBRANCH   1   5
BRANCH   1   7
ATOM      7  C   VAL A   1      24.888  27.255   4.770  0.00  0.00    +0.224 C 
ATOM      8  O   VAL A   1      26.100  27.381   4.945  0.00  0.00    -0.287 OA
ENDBRANCH   1   7
TORSDOF 3
REMARK  Name = ../refined-set-2016/2i4d/2i4d_pocket.pdb
REMARK  229 active torsions:
REMARK  status: ('A' for Active; 'I' for Inactive)
REMARK    1  A    between atoms: _1  and  _3
REMARK    2  A    between atoms: _3  and  _4
REMARK    3  A    between atoms: _3  and  _6
REMARK    4  A    between atoms: _6  and  _7
REMARK    5  A    between atoms: _7  and  _8
REMARK    6  A    between atoms: _8  and  _9
REMARK    7  A    between atoms: _18  and  _20
REMARK    8  A    between atoms: _20  and  _21
REMARK    9  A    between atoms: _20  and  _23
REMARK   10  A    between atoms: _23  and  _24
REMARK   11  A    between atoms: _27  and  _29
REMARK   12  A    between atoms: _29  and  _30
REMARK   13  A    between atoms: _29  and  _32
REMARK   14  A    between atoms: _32  and  _33
REMARK   15  A    between atoms: _36  and  _38
REMARK   16  A    between atoms: _38  and  _39
REMARK   17  A    between atoms: _38  and  _41
REMARK   18  A    between atoms: _41  and  _42
REMARK   19  A    between atoms: _45  and  _47
REMARK   20  A    between atoms: _47  and  _48
REMARK   21  A    between atoms: _47  and  _50
REMARK   22  A    between atoms: _50  and  _51
REMARK   23  A    between atoms: _54  and  _56
REMARK   24  A    between atoms: _56  and  _57
REMARK   25  A    between atoms: _59  and  _61
REMARK   26  A    between atoms: _61  and  _62
REMARK   27  A    between atoms: _65  and  _67
REMARK   28  A    between atoms: _67  and  _68
REMARK   29  A    between atoms: _67  and  _70
REMARK   30  A    between atoms: _70  and  _71
REMARK   31  A    between atoms: _74  and  _76
REMARK   32  A    between atoms: _76  and  _77
REMARK   33  A    between atoms: _76  and  _79
REMARK   34  A    between atoms: _79  and  _80
REMARK   35  A    between atoms: _83  and  _85
REMARK   36  A    between atoms: _85  and  _86
REMARK   37  A    between atoms: _85  and  _88
REMARK   38  A    between atoms: _88  and  _89
REMARK   39  A    between atoms: _92  and  _94
REMARK   40  A    between atoms: _94  and  _95
REMARK   41  A    between atoms: _94  and  _97
REMARK   42  A    between atoms: _100  and  _102
REMARK   43  A    between atoms: _102  and  _103
REMARK   44  A    between atoms: _102  and  _105
REMARK   45  A    between atoms: _105  and  _106
REMARK   46  A    between atoms: _106  and  _107
REMARK   47  A    between atoms: _107  and  _108
REMARK   48  A    between atoms: _108  and  _109
REMARK   49  A    between atoms: _113  and  _115
REMARK   50  A    between atoms: _115  and  _116
REMARK   51  A    between atoms: _115  and  _118
REMARK   52  A    between atoms: _118  and  _119
REMARK   53  A    between atoms: _119  and  _120
REMARK   54  A    between atoms: _122  and  _124
REMARK   55  A    between atoms: _124  and  _125
REMARK   56  A    between atoms: _124  and  _127
REMARK   57  A    between atoms: _127  and  _128
REMARK   58  A    between atoms: _131  and  _133
REMARK   59  A    between atoms: _133  and  _134
REMARK   60  A    between atoms: _136  and  _138
REMARK   61  A    between atoms: _138  and  _139
REMARK   62  A    between atoms: _141  and  _143
REMARK   63  A    between atoms: _143  and  _144
REMARK   64  A    between atoms: _143  and  _146
REMARK   65  A    between atoms: _146  and  _147
REMARK   66  A    between atoms: _150  and  _152
REMARK   67  A    between atoms: _152  and  _153
REMARK   68  A    between atoms: _155  and  _157
REMARK   69  A    between atoms: _157  and  _158
REMARK   70  A    between atoms: _160  and  _162
REMARK   71  A    between atoms: _162  and  _163
REMARK   72  A    between atoms: _162  and  _165
REMARK   73  A    between atoms: _165  and  _166
REMARK   74  A    between atoms: _172  and  _174
REMARK   75  A    between atoms: _174  and  _175
REMARK   76  A    between atoms: _174  and  _177
REMARK   77  A    between atoms: _177  and  _178
REMARK   78  A    between atoms: _181  and  _183
REMARK   79  A    between atoms: _183  and  _184
REMARK   80  A    between atoms: _183  and  _186
REMARK   81  A    between atoms: _189  and  _191
REMARK   82  A    between atoms: _191  and  _192
REMARK   83  A    between atoms: _191  and  _194
REMARK   84  A    between atoms: _194  and  _195
REMARK   85  A    between atoms: _198  and  _200
REMARK   86  A    between atoms: _200  and  _201
REMARK   87  A    between atoms: _200  and  _203
REMARK   88  A    between atoms: _203  and  _204
REMARK   89  A    between atoms: _208  and  _209
REMARK   90  A    between atoms: _214  and  _216
REMARK   91  A    between atoms: _216  and  _217
REMARK   92  A    between atoms: _216  and  _219
REMARK   93  A    between atoms: _222  and  _224
REMARK   94  A    between atoms: _224  and  _225
REMARK   95  A    between atoms: _224  and  _227
REMARK   96  A    between atoms: _227  and  _228
REMARK   97  A    between atoms: _233  and  _235
REMARK   98  A    between atoms: _235  and  _236
REMARK   99  A    between atoms: _235  and  _238
REMARK  100  A    between atoms: _238  and  _239
REMARK  101  A    between atoms: _242  and  _244
REMARK  102  A    between atoms: _244  and  _245
REMARK  103  A    between atoms: _244  and  _247
REMARK  104  A    between atoms: _247  and  _248
REMARK  105  A    between atoms: _251  and  _253
REMARK  106  A    between atoms: _253  and  _254
REMARK  107  A    between atoms: _256  and  _258
REMARK  108  A    between atoms: _258  and  _259
REMARK  109  A    between atoms: _258  and  _261
REMARK  110  A    between atoms: _261  and  _262
REMARK  111  A    between atoms: _262  and  _263
REMARK  112  A    between atoms: _263  and  _264
REMARK  113  A    between atoms: _273  and  _275
REMARK  114  A    between atoms: _275  and  _276
REMARK  115  A    between atoms: _275  and  _278
REMARK  116  A    between atoms: _278  and  _279
REMARK  117  A    between atoms: _284  and  _286
REMARK  118  A    between atoms: _286  and  _287
REMARK  119  A    between atoms: _286  and  _289
REMARK  120  A    between atoms: _289  and  _290
REMARK  121  A    between atoms: _290  and  _291
REMARK  122  A    between atoms: _291  and  _292
REMARK  123  A    between atoms: _301  and  _303
REMARK  124  A    between atoms: _303  and  _304
REMARK  125  A    between atoms: _303  and  _306
REMARK  126  A    between atoms: _306  and  _307
REMARK  127  A    between atoms: _310  and  _312
REMARK  128  A    between atoms: _312  and  _313
REMARK  129  A    between atoms: _312  and  _315
REMARK  130  A    between atoms: _315  and  _316
REMARK  131  A    between atoms: _319  and  _321
REMARK  132  A    between atoms: _321  and  _322
REMARK  133  A    between atoms: _321  and  _324
REMARK  134  A    between atoms: _324  and  _325
REMARK  135  A    between atoms: _328  and  _330
REMARK  136  A    between atoms: _330  and  _331
REMARK  137  A    between atoms: _330  and  _333
REMARK  138  A    between atoms: _333  and  _334
REMARK  139  A    between atoms: _337  and  _339
REMARK  140  A    between atoms: _339  and  _340
REMARK  141  A    between atoms: _342  and  _344
REMARK  142  A    between atoms: _344  and  _345
REMARK  143  A    between atoms: _348  and  _350
REMARK  144  A    between atoms: _350  and  _351
REMARK  145  A    between atoms: _350  and  _353
REMARK  146  A    between atoms: _353  and  _354
REMARK  147  A    between atoms: _357  and  _359
REMARK  148  A    between atoms: _359  and  _360
REMARK  149  A    between atoms: _359  and  _362
REMARK  150  A    between atoms: _362  and  _363
REMARK  151  A    between atoms: _366  and  _368
REMARK  152  A    between atoms: _368  and  _369
REMARK  153  A    between atoms: _368  and  _371
REMARK  154  A    between atoms: _371  and  _372
REMARK  155  A    between atoms: _375  and  _377
REMARK  156  A    between atoms: _377  and  _378
REMARK  157  A    between atoms: _377  and  _380
REMARK  158  A    between atoms: _383  and  _385
REMARK  159  A    between atoms: _385  and  _386
REMARK  160  A    between atoms: _385  and  _388
REMARK  161  A    between atoms: _388  and  _389
REMARK  162  A    between atoms: _389  and  _390
REMARK  163  A    between atoms: _390  and  _391
REMARK  164  A    between atoms: _391  and  _392
REMARK  165  A    between atoms: _396  and  _398
REMARK  166  A    between atoms: _398  and  _399
REMARK  167  A    between atoms: _398  and  _401
REMARK  168  A    between atoms: _401  and  _402
REMARK  169  A    between atoms: _402  and  _403
REMARK  170  A    between atoms: _405  and  _407
REMARK  171  A    between atoms: _407  and  _408
REMARK  172  A    between atoms: _407  and  _410
REMARK  173  A    between atoms: _410  and  _411
REMARK  174  A    between atoms: _414  and  _416
REMARK  175  A    between atoms: _416  and  _417
REMARK  176  A    between atoms: _419  and  _421
REMARK  177  A    between atoms: _421  and  _422
REMARK  178  A    between atoms: _424  and  _426
REMARK  179  A    between atoms: _426  and  _427
REMARK  180  A    between atoms: _426  and  _429
REMARK  181  A    between atoms: _429  and  _430
REMARK  182  A    between atoms: _433  and  _435
REMARK  183  A    between atoms: _435  and  _436
REMARK  184  A    between atoms: _438  and  _440
REMARK  185  A    between atoms: _440  and  _441
REMARK  186  A    between atoms: _443  and  _445
REMARK  187  A    between atoms: _445  and  _446
REMARK  188  A    between atoms: _445  and  _448
REMARK  189  A    between atoms: _448  and  _449
REMARK  190  A    between atoms: _455  and  _457
REMARK  191  A    between atoms: _457  and  _458
REMARK  192  A    between atoms: _457  and  _460
REMARK  193  A    between atoms: _460  and  _461
REMARK  194  A    between atoms: _464  and  _466
REMARK  195  A    between atoms: _466  and  _467
REMARK  196  A    between atoms: _466  and  _469
REMARK  197  A    between atoms: _469  and  _470
REMARK  198  A    between atoms: _473  and  _475
REMARK  199  A    between atoms: _475  and  _476
REMARK  200  A    between atoms: _475  and  _478
REMARK  201  A    between atoms: _478  and  _479
REMARK  202  A    between atoms: _483  and  _484
REMARK  203  A    between atoms: _489  and  _491
REMARK  204  A    between atoms: _491  and  _492
REMARK  205  A    between atoms: _491  and  _494
REMARK  206  A    between atoms: _497  and  _499
REMARK  207  A    between atoms: _499  and  _500
REMARK  208  A    between atoms: _499  and  _502
REMARK  209  A    between atoms: _502  and  _503
REMARK  210  A    between atoms: _508  and  _510
REMARK  211  A    between atoms: _510  and  _511
REMARK  212  A    between atoms: _510  and  _513
REMARK  213  A    between atoms: _513  and  _514
REMARK  214  A    between atoms: _517  and  _519
REMARK  215  A    between atoms: _519  and  _520
REMARK  216  A    between atoms: _519  and  _522
REMARK  217  A    between atoms: _522  and  _523
REMARK  218  A    between atoms: _526  and  _528
REMARK  219  A    between atoms: _528  and  _529
REMARK  220  A    between atoms: _531  and  _533
REMARK  221  A    between atoms: _533  and  _534
REMARK  222  A    between atoms: _533  and  _536
REMARK  223  A    between atoms: _536  and  _537
REMARK  224  A    between atoms: _537  and  _538
REMARK  225  A    between atoms: _538  and  _539
REMARK  226  A    between atoms: _548  and  _550
REMARK  227  A    between atoms: _550  and  _551
REMARK  228  A    between atoms: _550  and  _553
REMARK  229  A    between atoms: _553  and  _554
REMARK                            x       y       z     vdW  Elec       q    Type
REMARK                         _______ _______ _______ _____ _____    ______ ____
ROOT
ATOM      1  CA  LEU A   1      20.689  30.635   6.775  0.00  0.00    +0.133 C 
ENDROOT
BRANCH   1   2
ATOM      2  N   LEU A   1      19.871  31.808   7.050  0.00  0.00    -0.239 NA
ATOM      3  H   LEU A   1      19.136  31.753   7.783  0.00  0.00    +0.142 HD
ENDBRANCH   1   2
BRANCH   1   4
ATOM      4  C   LEU A   1      19.835  29.725   5.896  0.00  0.00    +0.224 C 
ATOM      5  O   LEU A   1      18.677  29.458   6.216  0.00  0.00    -0.287 OA
ENDBRANCH   1   4
BRANCH   1   6
ATOM      6  CB  LEU A   1      21.069  29.912   8.070  0.00  0.00    +0.025 C 
BRANCH   6   7
ATOM      7  CG  LEU A   1      21.749  30.766   9.145  0.00  0.00    +0.002 C 
ATOM      8  CD2 LEU A   1      22.129  29.902  10.345  0.00  0.00    +0.000 C 
ATOM      9  CD1 LEU A   1      22.972  31.480   8.563  0.00  0.00    +0.000 C 
ENDBRANCH   6   7
ENDBRANCH   1   6
TORSDOF 4
REMARK  Name = ../refined-set-2016/2i4d/2i4d_pocket.pdb
REMARK  229 active torsions:
REMARK  status: ('A' for Active; 'I' for Inactive)
REMARK    1  A    between atoms: _1  and  _3
REMARK    2  A    between atoms: _3  and  _4
REMARK    3  A    between atoms: _3  and  _6
REMARK    4  A    between atoms: _6  and  _7
REMARK    5  A    between atoms: _7  and  _8
REMARK    6  A    between atoms: _8  and  _9
REMARK    7  A    between atoms: _18  and  _20
REMARK    8  A    between atoms: _20  and  _21
REMARK    9  A    between atoms: _20  and  _23
REMARK   10  A    between atoms: _23  and  _24
REMARK   11  A    between atoms: _27  and  _29
REMARK   12  A    between atoms: _29  and  _30
REMARK   13  A    between atoms: _29  and  _32
REMARK   14  A    between atoms: _32  and  _33
REMARK   15  A    between atoms: _36  and  _38
REMARK   16  A    between atoms: _38  and  _39
REMARK   17  A    between atoms: _38  and  _41
REMARK   18  A    between atoms: _41  and  _42
REMARK   19  A    between atoms: _45  and  _47
REMARK   20  A    between atoms: _47  and  _48
REMARK   21  A    between atoms: _47  and  _50
REMARK   22  A    between atoms: _50  and  _51
REMARK   23  A    between atoms: _54  and  _56
REMARK   24  A    between atoms: _56  and  _57
REMARK   25  A    between atoms: _59  and  _61
REMARK   26  A    between atoms: _61  and  _62
REMARK   27  A    between atoms: _65  and  _67
REMARK   28  A    between atoms: _67  and  _68
REMARK   29  A    between atoms: _67  and  _70
REMARK   30  A    between atoms: _70  and  _71
REMARK   31  A    between atoms: _74  and  _76
REMARK   32  A    between atoms: _76  and  _77
REMARK   33  A    between atoms: _76  and  _79
REMARK   34  A    between atoms: _79  and  _80
REMARK   35  A    between atoms: _83  and  _85
REMARK   36  A    between atoms: _85  and  _86
REMARK   37  A    between atoms: _85  and  _88
REMARK   38  A    between atoms: _88  and  _89
REMARK   39  A    between atoms: _92  and  _94
REMARK   40  A    between atoms: _94  and  _95
REMARK   41  A    between atoms: _94  and  _97
REMARK   42  A    between atoms: _100  and  _102
REMARK   43  A    between atoms: _102  and  _103
REMARK   44  A    between atoms: _102  and  _105
REMARK   45  A    between atoms: _105  and  _106
REMARK   46  A    between atoms: _106  and  _107
REMARK   47  A    between atoms: _107  and  _108
REMARK   48  A    between atoms: _108  and  _109
REMARK   49  A    between atoms: _113  and  _115
REMARK   50  A    between atoms: _115  and  _116
REMARK   51  A    between atoms: _115  and  _118
REMARK   52  A    between atoms: _118  and  _119
REMARK   53  A    between atoms: _119  and  _120
REMARK   54  A    between atoms: _122  and  _124
REMARK   55  A    between atoms: _124  and  _125
REMARK   56  A    between atoms: _124  and  _127
REMARK   57  A    between atoms: _127  and  _128
REMARK   58  A    between atoms: _131  and  _133
REMARK   59  A    between atoms: _133  and  _134
REMARK   60  A    between atoms: _136  and  _138
REMARK   61  A    between atoms: _138  and  _139
REMARK   62  A    between atoms: _141  and  _143
REMARK   63  A    between atoms: _143  and  _144
REMARK   64  A    between atoms: _143  and  _146
REMARK   65  A    between atoms: _146  and  _147
REMARK   66  A    between atoms: _150  and  _152
REMARK   67  A    between atoms: _152  and  _153
REMARK   68  A    between atoms: _155  and  _157
REMARK   69  A    between atoms: _157  and  _158
REMARK   70  A    between atoms: _160  and  _162
REMARK   71  A    between atoms: _162  and  _163
REMARK   72  A    between atoms: _162  and  _165
REMARK   73  A    between atoms: _165  and  _166
REMARK   74  A    between atoms: _172  and  _174
REMARK   75  A    between atoms: _174  and  _175
REMARK   76  A    between atoms: _174  and  _177
REMARK   77  A    between atoms: _177  and  _178
REMARK   78  A    between atoms: _181  and  _183
REMARK   79  A    between atoms: _183  and  _184
REMARK   80  A    between atoms: _183  and  _186
REMARK   81  A    between atoms: _189  and  _191
REMARK   82  A    between atoms: _191  and  _192
REMARK   83  A    between atoms: _191  and  _194
REMARK   84  A    between atoms: _194  and  _195
REMARK   85  A    between atoms: _198  and  _200
REMARK   86  A    between atoms: _200  and  _201
REMARK   87  A    between atoms: _200  and  _203
REMARK   88  A    between atoms: _203  and  _204
REMARK   89  A    between atoms: _208  and  _209
REMARK   90  A    between atoms: _214  and  _216
REMARK   91  A    between atoms: _216  and  _217
REMARK   92  A    between atoms: _216  and  _219
REMARK   93  A    between atoms: _222  and  _224
REMARK   94  A    between atoms: _224  and  _225
REMARK   95  A    between atoms: _224  and  _227
REMARK   96  A    between atoms: _227  and  _228
REMARK   97  A    between atoms: _233  and  _235
REMARK   98  A    between atoms: _235  and  _236
REMARK   99  A    between atoms: _235  and  _238
REMARK  100  A    between atoms: _238  and  _239
REMARK  101  A    between atoms: _242  and  _244
REMARK  102  A    between atoms: _244  and  _245
REMARK  103  A    between atoms: _244  and  _247
REMARK  104  A    between atoms: _247  and  _248
REMARK  105  A    between atoms: _251  and  _253
REMARK  106  A    between atoms: _253  and  _254
REMARK  107  A    between atoms: _256  and  _258
REMARK  108  A    between atoms: _258  and  _259
REMARK  109  A    between atoms: _258  and  _261
REMARK  110  A    between atoms: _261  and  _262
REMARK  111  A    between atoms: _262  and  _263
REMARK  112  A    between atoms: _263  and  _264
REMARK  113  A    between atoms: _273  and  _275
REMARK  114  A    between atoms: _275  and  _276
REMARK  115  A    between atoms: _275  and  _278
REMARK  116  A    between atoms: _278  and  _279
REMARK  117  A    between atoms: _284  and  _286
REMARK  118  A    between atoms: _286  and  _287
REMARK  119  A    between atoms: _286  and  _289
REMARK  120  A    between atoms: _289  and  _290
REMARK  121  A    between atoms: _290  and  _291
REMARK  122  A    between atoms: _291  and  _292
REMARK  123  A    between atoms: _301  and  _303
REMARK  124  A    between atoms: _303  and  _304
REMARK  125  A    between atoms: _303  and  _306
REMARK  126  A    between atoms: _306  and  _307
REMARK  127  A    between atoms: _310  and  _312
REMARK  128  A    between atoms: _312  and  _313
REMARK  129  A    between atoms: _312  and  _315
REMARK  130  A    between atoms: _315  and  _316
REMARK  131  A    between atoms: _319  and  _321
REMARK  132  A    between atoms: _321  and  _322
REMARK  133  A    between atoms: _321  and  _324
REMARK  134  A    between atoms: _324  and  _325
REMARK  135  A    between atoms: _328  and  _330
REMARK  136  A    between atoms: _330  and  _331
REMARK  137  A    between atoms: _330  and  _333
REMARK  138  A    between atoms: _333  and  _334
REMARK  139  A    between atoms: _337  and  _339
REMARK  140  A    between atoms: _339  and  _340
REMARK  141  A    between atoms: _342  and  _344
REMARK  142  A    between atoms: _344  and  _345
REMARK  143  A    between atoms: _348  and  _350
REMARK  144  A    between atoms: _350  and  _351
REMARK  145  A    between atoms: _350  and  _353
REMARK  146  A    between atoms: _353  and  _354
REMARK  147  A    between atoms: _357  and  _359
REMARK  148  A    between atoms: _359  and  _360
REMARK  149  A    between atoms: _359  and  _362
REMARK  150  A    between atoms: _362  and  _363
REMARK  151  A    between atoms: _366  and  _368
REMARK  152  A    between atoms: _368  and  _369
REMARK  153  A    between atoms: _368  and  _371
REMARK  154  A    between atoms: _371  and  _372
REMARK  155  A    between atoms: _375  and  _377
REMARK  156  A    between atoms: _377  and  _378
REMARK  157  A    between atoms: _377  and  _380
REMARK  158  A    between atoms: _383  and  _385
REMARK  159  A    between atoms: _385  and  _386
REMARK  160  A    between atoms: _385  and  _388
REMARK  161  A    between atoms: _388  and  _389
REMARK  162  A    between atoms: _389  and  _390
REMARK  163  A    between atoms: _390  and  _391
REMARK  164  A    between atoms: _391  and  _392
REMARK  165  A    between atoms: _396  and  _398
REMARK  166  A    between atoms: _398  and  _399
REMARK  167  A    between atoms: _398  and  _401
REMARK  168  A    between atoms: _401  and  _402
REMARK  169  A    between atoms: _402  and  _403
REMARK  170  A    between atoms: _405  and  _407
REMARK  171  A    between atoms: _407  and  _408
REMARK  172  A    between atoms: _407  and  _410
REMARK  173  A    between atoms: _410  and  _411
REMARK  174  A    between atoms: _414  and  _416
REMARK  175  A    between atoms: _416  and  _417
REMARK  176  A    between atoms: _419  and  _421
REMARK  177  A    between atoms: _421  and  _422
REMARK  178  A    between atoms: _424  and  _426
REMARK  179  A    between atoms: _426  and  _427
REMARK  180  A    between atoms: _426  and  _429
REMARK  181  A    between atoms: _429  and  _430
REMARK  182  A    between atoms: _433  and  _435
REMARK  183  A    between atoms: _435  and  _436
REMARK  184  A    between atoms: _438  and  _440
REMARK  185  A    between atoms: _440  and  _441
REMARK  186  A    between atoms: _443  and  _445
REMARK  187  A    between atoms: _445  and  _446
REMARK  188  A    between atoms: _445  and  _448
REMARK  189  A    between atoms: _448  and  _449
REMARK  190  A    between atoms: _455  and  _457
REMARK  191  A    between atoms: _457  and  _458
REMARK  192  A    between atoms: _457  and  _460
REMARK  193  A    between atoms: _460  and  _461
REMARK  194  A    between atoms: _464  and  _466
REMARK  195  A    between atoms: _466  and  _467
REMARK  196  A    between atoms: _466  and  _469
REMARK  197  A    between atoms: _469  and  _470
REMARK  198  A    between atoms: _473  and  _475
REMARK  199  A    between atoms: _475  and  _476
REMARK  200  A    between atoms: _475  and  _478
REMARK  201  A    between atoms: _478  and  _479
REMARK  202  A    between atoms: _483  and  _484
REMARK  203  A    between atoms: _489  and  _491
REMARK  204  A    between atoms: _491  and  _492
REMARK  205  A    between atoms: _491  and  _494
REMARK  206  A    between atoms: _497  and  _499
REMARK  207  A    between atoms: _499  and  _500
REMARK  208  A    between atoms: _499  and  _502
REMARK  209  A    between atoms: _502  and  _503
REMARK  210  A    between atoms: _508  and  _510
REMARK  211  A    between atoms: _510  and  _511
REMARK  212  A    between atoms: _510  and  _513
REMARK  213  A    between atoms: _513  and  _514
REMARK  214  A    between atoms: _517  and  _519
REMARK  215  A    between atoms: _519  and  _520
REMARK  216  A    between atoms: _519  and  _522
REMARK  217  A    between atoms: _522  and  _523
REMARK  218  A    between atoms: _526  and  _528
REMARK  219  A    between atoms: _528  and  _529
REMARK  220  A    between atoms: _531  and  _533
REMARK  221  A    between atoms: _533  and  _534
REMARK  222  A    between atoms: _533  and  _536
REMARK  223  A    between atoms: _536  and  _537
REMARK  224  A    between atoms: _537  and  _538
REMARK  225  A    between atoms: _538  and  _539
REMARK  226  A    between atoms: _548  and  _550
REMARK  227  A    between atoms: _550  and  _551
REMARK  228  A    between atoms: _550  and  _553
REMARK  229  A    between atoms: _553  and  _554
REMARK                            x       y       z     vdW  Elec       q    Type
REMARK                         _______ _______ _______ _____ _____    ______ ____
ROOT
ATOM      1  C   ILE A   5      12.942  29.981  11.355  0.00  0.00    +0.241 C 
ATOM      2  N   ILE A   6      12.149  30.719  12.120  0.00  0.00    -0.297 N 
ATOM      3  H   ILE A   6      11.350  30.262  12.605  0.00  0.00    +0.150 HD
ATOM      4  O   ILE A   5      13.866  30.447  10.692  0.00  0.00    -0.273 OA
ENDROOT
BRANCH   2   5
ATOM      5  CA  ILE A   6      12.360  32.148  12.303  0.00  0.00    +0.149 C 
BRANCH   5   6
ATOM      6  C   ILE A   6      13.062  32.264  13.661  0.00  0.00    +0.241 C 
ATOM      7  O   ILE A   6      12.474  31.963  14.705  0.00  0.00    -0.273 OA
ATOM      8  N   GLY A   7      14.338  32.639  13.626  0.00  0.00    -0.295 N 
ATOM      9  H   GLY A   7      14.785  32.850  12.711  0.00  0.00    +0.150 HD
BRANCH   8  10
ATOM     10  CA  GLY A   7      15.116  32.758  14.846  0.00  0.00    +0.176 C 
BRANCH  10  11
ATOM     11  C   GLY A   7      15.060  34.118  15.511  0.00  0.00    +0.243 C 
ATOM     12  N   ARG A   8      15.694  34.223  16.677  0.00  0.00    -0.297 N 
ATOM     13  H   ARG A   8      16.189  33.389  17.052  0.00  0.00    +0.150 HD
ATOM     14  O   GLY A   7      14.475  35.058  14.966  0.00  0.00    -0.273 OA
BRANCH  12  15
ATOM     15  CA  ARG A   8      15.724  35.461  17.452  0.00  0.00    +0.149 C 
BRANCH  15  16
ATOM     16  C   ARG A   8      16.214  36.683  16.683  0.00  0.00    +0.241 C 
ATOM     17  O   ARG A   8      15.736  37.792  16.922  0.00  0.00    -0.273 OA
ATOM     18  N   ASN A   9      17.152  36.486  15.760  0.00  0.00    -0.298 N 
ATOM     19  H   ASN A   9      17.507  35.524  15.588  0.00  0.00    +0.150 HD
BRANCH  18  20
ATOM     20  CA  ASN A   9      17.691  37.603  14.984  0.00  0.00    +0.146 C 
BRANCH  20  21
ATOM     21  C   ASN A   9      16.583  38.398  14.273  0.00  0.00    +0.227 C 
ATOM     22  O   ASN A   9      16.692  39.612  14.092  0.00  0.00    -0.286 OA
ENDBRANCH  20  21
BRANCH  20  23
ATOM     23  CB  ASN A   9      18.741  37.109  13.977  0.00  0.00    +0.112 C 
BRANCH  23  24
ATOM     24  CG  ASN A   9      18.125  36.566  12.699  0.00  0.00    +0.222 C 
ATOM     25  OD1 ASN A   9      17.387  35.574  12.715  0.00  0.00    -0.275 OA
ATOM     26  ND2 ASN A   9      18.421  37.224  11.580  0.00  0.00    -0.329 N 
ATOM     27 HD21 ASN A   9      19.047  38.054  11.615  0.00  0.00    +0.145 HD
ATOM     28 HD22 ASN A   9      18.026  36.908  10.671  0.00  0.00    +0.145 HD
ENDBRANCH  23  24
ENDBRANCH  20  23
ENDBRANCH  18  20
ENDBRANCH  15  16
BRANCH  15  29
ATOM     29  CB  ARG A   8      16.572  35.284  18.714  0.00  0.00    +0.033 C 
BRANCH  29  30
ATOM     30  CG  ARG A   8      15.986  34.324  19.740  0.00  0.00    +0.045 C 
BRANCH  30  31
ATOM     31  CD  ARG A   8      16.803  34.332  21.025  0.00  0.00    +0.174 C 
BRANCH  31  32
ATOM     32  NE  ARG A   8      18.160  33.828  20.821  0.00  0.00    -0.265 N 
ATOM     33  CZ  ARG A   8      19.247  34.591  20.768  0.00  0.00    +0.342 C 
ATOM     34  NH2 ARG A   8      19.149  35.912  20.895  0.00  0.00    -0.292 N 
ATOM     35 HH21 ARG A   8      18.218  36.353  21.037  0.00  0.00    +0.255 HD
ATOM     36 HH22 ARG A   8      20.004  36.503  20.853  0.00  0.00    +0.255 HD
ATOM     37  NH1 ARG A   8      20.437  34.030  20.613  0.00  0.00    -0.292 N 
ATOM     38 HH11 ARG A   8      21.290  34.623  20.571  0.00  0.00    +0.255 HD
ATOM     39 HH12 ARG A   8      20.518  32.996  20.533  0.00  0.00    +0.255 HD
ATOM     40  HE  ARG A   8      18.283  32.801  20.710  0.00  0.00    +0.259 HD
ENDBRANCH  31  32
ENDBRANCH  30  31
ENDBRANCH  29  30
ENDBRANCH  15  29
ENDBRANCH  12  15
ENDBRANCH  10  11
ENDBRANCH   8  10
ENDBRANCH   5   6
BRANCH   5  41
ATOM     41  CB  ILE A   6      11.029  32.933  12.332  0.00  0.00    +0.027 C 
ATOM     42  CG2 ILE A   6      11.304  34.429  12.491  0.00  0.00    +0.002 C 
BRANCH  41  43
ATOM     43  CG1 ILE A   6      10.244  32.680  11.044  0.00  0.00    +0.002 C 
ATOM     44  CD1 ILE A   6      11.017  32.993   9.776  0.00  0.00    +0.000 C 
ENDBRANCH  41  43
ENDBRANCH   5  41
ENDBRANCH   2   5
BRANCH   1  45
ATOM     45  CA  ILE A   5      12.641  28.491  11.336  0.00  0.00    +0.149 C 
BRANCH  45  48
ATOM     46  C   ASN A   4      11.481  27.249   9.577  0.00  0.00    +0.241 C 
ATOM     47  O   ASN A   4      10.461  27.106  10.251  0.00  0.00    -0.273 OA
ATOM     48  N   ILE A   5      12.543  27.930   9.998  0.00  0.00    -0.297 N 
ATOM     49  H   ILE A   5      13.338  28.067   9.342  0.00  0.00    +0.150 HD
BRANCH  46  50
ATOM     50  CA  ASN A   4      11.582  26.661   8.170  0.00  0.00    +0.158 C 
BRANCH  50  53
ATOM     51  C   VAL A   3      11.980  24.325   8.735  0.00  0.00    +0.241 C 
ATOM     52  O   VAL A   3      13.152  24.545   9.053  0.00  0.00    -0.273 OA
ATOM     53  N   ASN A   4      11.164  25.268   8.270  0.00  0.00    -0.297 N 
ATOM     54  H   ASN A   4      10.204  25.004   7.970  0.00  0.00    +0.150 HD
BRANCH  51  55
ATOM     55  CA  VAL A   3      11.407  22.914   8.818  0.00  0.00    +0.149 C 
BRANCH  55  57
ATOM     56  C   PRO A   2      12.287  20.750   8.135  0.00  0.00    +0.241 C 
ATOM     57  N   VAL A   3      12.490  21.952   8.663  0.00  0.00    -0.297 N 
ATOM     58  H   VAL A   3      13.447  22.213   8.974  0.00  0.00    +0.150 HD
ATOM     59  O   PRO A   2      11.190  20.384   7.716  0.00  0.00    -0.273 OA
BRANCH  56  65
ATOM     60  C   THR A   1      15.240  21.369   7.265  0.00  0.00    +0.244 C 
ATOM     61  N   PRO A   2      14.793  20.505   8.194  0.00  0.00    -0.272 N 
ATOM     62  CD  PRO A   2      15.465  20.066   9.430  0.00  0.00    +0.094 C 
ATOM     63  CG  PRO A   2      14.334  19.439  10.211  0.00  0.00    +0.024 C 
ATOM     64  CB  PRO A   2      13.526  18.786   9.149  0.00  0.00    +0.031 C 
ATOM     65  CA  PRO A   2      13.501  19.831   8.034  0.00  0.00    +0.152 C 
ATOM     66  O   THR A   1      14.594  21.628   6.251  0.00  0.00    -0.273 OA
BRANCH  60  67
ATOM     67  CA  THR A   1      16.599  22.026   7.501  0.00  0.00    +0.172 C 
BRANCH  67  68
ATOM     68  N   THR A   1      17.304  22.038   6.226  0.00  0.00    -0.236 NA
ATOM     69  H   THR A   1      17.288  22.902   5.648  0.00  0.00    +0.142 HD
ENDBRANCH  67  68
BRANCH  67  70
ATOM     70  CB  THR A   1      16.408  23.454   8.056  0.00  0.00    +0.135 C 
ATOM     71  CG2 THR A   1      15.706  24.347   7.045  0.00  0.00    +0.034 C 
BRANCH  70  72
ATOM     72  OG1 THR A   1      15.641  23.400   9.261  0.00  0.00    -0.383 OA
ATOM     73  HG1 THR A   1      14.756  22.999   9.070  0.00  0.00    +0.210 HD
ENDBRANCH  70  72
ENDBRANCH  67  70
ENDBRANCH  60  67
ENDBRANCH  56  65
ENDBRANCH  55  57
BRANCH  55  74
ATOM     74  CB  VAL A   3      10.681  22.724  10.190  0.00  0.00    +0.027 C 
ATOM     75  CG2 VAL A   3      11.634  22.982  11.334  0.00  0.00    +0.002 C 
ATOM     76  CG1 VAL A   3       9.471  23.646  10.301  0.00  0.00    +0.002 C 
ENDBRANCH  55  74
ENDBRANCH  51  55
ENDBRANCH  50  53
BRANCH  50  77
ATOM     77  CB  ASN A   4      10.691  27.416   7.184  0.00  0.00    +0.114 C 
BRANCH  77  78
ATOM     78  CG  ASN A   4      10.843  26.918   5.750  0.00  0.00    +0.222 C 
ATOM     79  OD1 ASN A   4      11.949  26.607   5.297  0.00  0.00    -0.275 OA
ATOM     80  ND2 ASN A   4       9.728  26.854   5.026  0.00  0.00    -0.329 N 
ATOM     81 HD21 ASN A   4       8.817  27.126   5.448  0.00  0.00    +0.145 HD
ATOM     82 HD22 ASN A   4       9.767  26.532   4.038  0.00  0.00    +0.145 HD
ENDBRANCH  77  78
ENDBRANCH  50  77
ENDBRANCH  46  50
ENDBRANCH  45  48
BRANCH  45  83
ATOM     83  CB  ILE A   5      13.794  27.787  12.104  0.00  0.00    +0.027 C 
ATOM     84  CG2 ILE A   5      14.036  28.439  13.450  0.00  0.00    +0.002 C 
BRANCH  83  85
ATOM     85  CG1 ILE A   5      13.502  26.290  12.251  0.00  0.00    +0.002 C 
ATOM     86  CD1 ILE A   5      14.723  25.467  12.588  0.00  0.00    +0.000 C 
ENDBRANCH  83  85
ENDBRANCH  45  83
ENDBRANCH   1  45
TORSDOF 32
REMARK  Name = ../refined-set-2016/2i4d/2i4d_pocket.pdb
REMARK  229 active torsions:
REMARK  status: ('A' for Active; 'I' for Inactive)
REMARK    1  A    between atoms: _1  and  _3
REMARK    2  A    between atoms: _3  and  _4
REMARK    3  A    between atoms: _3  and  _6
REMARK    4  A    between atoms: _6  and  _7
REMARK    5  A    between atoms: _7  and  _8
REMARK    6  A    between atoms: _8  and  _9
REMARK    7  A    between atoms: _18  and  _20
REMARK    8  A    between atoms: _20  and  _21
REMARK    9  A    between atoms: _20  and  _23
REMARK   10  A    between atoms: _23  and  _24
REMARK   11  A    between atoms: _27  and  _29
REMARK   12  A    between atoms: _29  and  _30
REMARK   13  A    between atoms: _29  and  _32
REMARK   14  A    between atoms: _32  and  _33
REMARK   15  A    between atoms: _36  and  _38
REMARK   16  A    between atoms: _38  and  _39
REMARK   17  A    between atoms: _38  and  _41
REMARK   18  A    between atoms: _41  and  _42
REMARK   19  A    between atoms: _45  and  _47
REMARK   20  A    between atoms: _47  and  _48
REMARK   21  A    between atoms: _47  and  _50
REMARK   22  A    between atoms: _50  and  _51
REMARK   23  A    between atoms: _54  and  _56
REMARK   24  A    between atoms: _56  and  _57
REMARK   25  A    between atoms: _59  and  _61
REMARK   26  A    between atoms: _61  and  _62
REMARK   27  A    between atoms: _65  and  _67
REMARK   28  A    between atoms: _67  and  _68
REMARK   29  A    between atoms: _67  and  _70
REMARK   30  A    between atoms: _70  and  _71
REMARK   31  A    between atoms: _74  and  _76
REMARK   32  A    between atoms: _76  and  _77
REMARK   33  A    between atoms: _76  and  _79
REMARK   34  A    between atoms: _79  and  _80
REMARK   35  A    between atoms: _83  and  _85
REMARK   36  A    between atoms: _85  and  _86
REMARK   37  A    between atoms: _85  and  _88
REMARK   38  A    between atoms: _88  and  _89
REMARK   39  A    between atoms: _92  and  _94
REMARK   40  A    between atoms: _94  and  _95
REMARK   41  A    between atoms: _94  and  _97
REMARK   42  A    between atoms: _100  and  _102
REMARK   43  A    between atoms: _102  and  _103
REMARK   44  A    between atoms: _102  and  _105
REMARK   45  A    between atoms: _105  and  _106
REMARK   46  A    between atoms: _106  and  _107
REMARK   47  A    between atoms: _107  and  _108
REMARK   48  A    between atoms: _108  and  _109
REMARK   49  A    between atoms: _113  and  _115
REMARK   50  A    between atoms: _115  and  _116
REMARK   51  A    between atoms: _115  and  _118
REMARK   52  A    between atoms: _118  and  _119
REMARK   53  A    between atoms: _119  and  _120
REMARK   54  A    between atoms: _122  and  _124
REMARK   55  A    between atoms: _124  and  _125
REMARK   56  A    between atoms: _124  and  _127
REMARK   57  A    between atoms: _127  and  _128
REMARK   58  A    between atoms: _131  and  _133
REMARK   59  A    between atoms: _133  and  _134
REMARK   60  A    between atoms: _136  and  _138
REMARK   61  A    between atoms: _138  and  _139
REMARK   62  A    between atoms: _141  and  _143
REMARK   63  A    between atoms: _143  and  _144
REMARK   64  A    between atoms: _143  and  _146
REMARK   65  A    between atoms: _146  and  _147
REMARK   66  A    between atoms: _150  and  _152
REMARK   67  A    between atoms: _152  and  _153
REMARK   68  A    between atoms: _155  and  _157
REMARK   69  A    between atoms: _157  and  _158
REMARK   70  A    between atoms: _160  and  _162
REMARK   71  A    between atoms: _162  and  _163
REMARK   72  A    between atoms: _162  and  _165
REMARK   73  A    between atoms: _165  and  _166
REMARK   74  A    between atoms: _172  and  _174
REMARK   75  A    between atoms: _174  and  _175
REMARK   76  A    between atoms: _174  and  _177
REMARK   77  A    between atoms: _177  and  _178
REMARK   78  A    between atoms: _181  and  _183
REMARK   79  A    between atoms: _183  and  _184
REMARK   80  A    between atoms: _183  and  _186
REMARK   81  A    between atoms: _189  and  _191
REMARK   82  A    between atoms: _191  and  _192
REMARK   83  A    between atoms: _191  and  _194
REMARK   84  A    between atoms: _194  and  _195
REMARK   85  A    between atoms: _198  and  _200
REMARK   86  A    between atoms: _200  and  _201
REMARK   87  A    between atoms: _200  and  _203
REMARK   88  A    between atoms: _203  and  _204
REMARK   89  A    between atoms: _208  and  _209
REMARK   90  A    between atoms: _214  and  _216
REMARK   91  A    between atoms: _216  and  _217
REMARK   92  A    between atoms: _216  and  _219
REMARK   93  A    between atoms: _222  and  _224
REMARK   94  A    between atoms: _224  and  _225
REMARK   95  A    between atoms: _224  and  _227
REMARK   96  A    between atoms: _227  and  _228
REMARK   97  A    between atoms: _233  and  _235
REMARK   98  A    between atoms: _235  and  _236
REMARK   99  A    between atoms: _235  and  _238
REMARK  100  A    between atoms: _238  and  _239
REMARK  101  A    between atoms: _242  and  _244
REMARK  102  A    between atoms: _244  and  _245
REMARK  103  A    between atoms: _244  and  _247
REMARK  104  A    between atoms: _247  and  _248
REMARK  105  A    between atoms: _251  and  _253
REMARK  106  A    between atoms: _253  and  _254
REMARK  107  A    between atoms: _256  and  _258
REMARK  108  A    between atoms: _258  and  _259
REMARK  109  A    between atoms: _258  and  _261
REMARK  110  A    between atoms: _261  and  _262
REMARK  111  A    between atoms: _262  and  _263
REMARK  112  A    between atoms: _263  and  _264
REMARK  113  A    between atoms: _273  and  _275
REMARK  114  A    between atoms: _275  and  _276
REMARK  115  A    between atoms: _275  and  _278
REMARK  116  A    between atoms: _278  and  _279
REMARK  117  A    between atoms: _284  and  _286
REMARK  118  A    between atoms: _286  and  _287
REMARK  119  A    between atoms: _286  and  _289
REMARK  120  A    between atoms: _289  and  _290
REMARK  121  A    between atoms: _290  and  _291
REMARK  122  A    between atoms: _291  and  _292
REMARK  123  A    between atoms: _301  and  _303
REMARK  124  A    between atoms: _303  and  _304
REMARK  125  A    between atoms: _303  and  _306
REMARK  126  A    between atoms: _306  and  _307
REMARK  127  A    between atoms: _310  and  _312
REMARK  128  A    between atoms: _312  and  _313
REMARK  129  A    between atoms: _312  and  _315
REMARK  130  A    between atoms: _315  and  _316
REMARK  131  A    between atoms: _319  and  _321
REMARK  132  A    between atoms: _321  and  _322
REMARK  133  A    between atoms: _321  and  _324
REMARK  134  A    between atoms: _324  and  _325
REMARK  135  A    between atoms: _328  and  _330
REMARK  136  A    between atoms: _330  and  _331
REMARK  137  A    between atoms: _330  and  _333
REMARK  138  A    between atoms: _333  and  _334
REMARK  139  A    between atoms: _337  and  _339
REMARK  140  A    between atoms: _339  and  _340
REMARK  141  A    between atoms: _342  and  _344
REMARK  142  A    between atoms: _344  and  _345
REMARK  143  A    between atoms: _348  and  _350
REMARK  144  A    between atoms: _350  and  _351
REMARK  145  A    between atoms: _350  and  _353
REMARK  146  A    between atoms: _353  and  _354
REMARK  147  A    between atoms: _357  and  _359
REMARK  148  A    between atoms: _359  and  _360
REMARK  149  A    between atoms: _359  and  _362
REMARK  150  A    between atoms: _362  and  _363
REMARK  151  A    between atoms: _366  and  _368
REMARK  152  A    between atoms: _368  and  _369
REMARK  153  A    between atoms: _368  and  _371
REMARK  154  A    between atoms: _371  and  _372
REMARK  155  A    between atoms: _375  and  _377
REMARK  156  A    between atoms: _377  and  _378
REMARK  157  A    between atoms: _377  and  _380
REMARK  158  A    between atoms: _383  and  _385
REMARK  159  A    between atoms: _385  and  _386
REMARK  160  A    between atoms: _385  and  _388
REMARK  161  A    between atoms: _388  and  _389
REMARK  162  A    between atoms: _389  and  _390
REMARK  163  A    between atoms: _390  and  _391
REMARK  164  A    between atoms: _391  and  _392
REMARK  165  A    between atoms: _396  and  _398
REMARK  166  A    between atoms: _398  and  _399
REMARK  167  A    between atoms: _398  and  _401
REMARK  168  A    between atoms: _401  and  _402
REMARK  169  A    between atoms: _402  and  _403
REMARK  170  A    between atoms: _405  and  _407
REMARK  171  A    between atoms: _407  and  _408
REMARK  172  A    between atoms: _407  and  _410
REMARK  173  A    between atoms: _410  and  _411
REMARK  174  A    between atoms: _414  and  _416
REMARK  175  A    between atoms: _416  and  _417
REMARK  176  A    between atoms: _419  and  _421
REMARK  177  A    between atoms: _421  and  _422
REMARK  178  A    between atoms: _424  and  _426
REMARK  179  A    between atoms: _426  and  _427
REMARK  180  A    between atoms: _426  and  _429
REMARK  181  A    between atoms: _429  and  _430
REMARK  182  A    between atoms: _433  and  _435
REMARK  183  A    between atoms: _435  and  _436
REMARK  184  A    between atoms: _438  and  _440
REMARK  185  A    between atoms: _440  and  _441
REMARK  186  A    between atoms: _443  and  _445
REMARK  187  A    between atoms: _445  and  _446
REMARK  188  A    between atoms: _445  and  _448
REMARK  189  A    between atoms: _448  and  _449
REMARK  190  A    between atoms: _455  and  _457
REMARK  191  A    between atoms: _457  and  _458
REMARK  192  A    between atoms: _457  and  _460
REMARK  193  A    between atoms: _460  and  _461
REMARK  194  A    between atoms: _464  and  _466
REMARK  195  A    between atoms: _466  and  _467
REMARK  196  A    between atoms: _466  and  _469
REMARK  197  A    between atoms: _469  and  _470
REMARK  198  A    between atoms: _473  and  _475
REMARK  199  A    between atoms: _475  and  _476
REMARK  200  A    between atoms: _475  and  _478
REMARK  201  A    between atoms: _478  and  _479
REMARK  202  A    between atoms: _483  and  _484
REMARK  203  A    between atoms: _489  and  _491
REMARK  204  A    between atoms: _491  and  _492
REMARK  205  A    between atoms: _491  and  _494
REMARK  206  A    between atoms: _497  and  _499
REMARK  207  A    between atoms: _499  and  _500
REMARK  208  A    between atoms: _499  and  _502
REMARK  209  A    between atoms: _502  and  _503
REMARK  210  A    between atoms: _508  and  _510
REMARK  211  A    between atoms: _510  and  _511
REMARK  212  A    between atoms: _510  and  _513
REMARK  213  A    between atoms: _513  and  _514
REMARK  214  A    between atoms: _517  and  _519
REMARK  215  A    between atoms: _519  and  _520
REMARK  216  A    between atoms: _519  and  _522
REMARK  217  A    between atoms: _522  and  _523
REMARK  218  A    between atoms: _526  and  _528
REMARK  219  A    between atoms: _528  and  _529
REMARK  220  A    between atoms: _531  and  _533
REMARK  221  A    between atoms: _533  and  _534
REMARK  222  A    between atoms: _533  and  _536
REMARK  223  A    between atoms: _536  and  _537
REMARK  224  A    between atoms: _537  and  _538
REMARK  225  A    between atoms: _538  and  _539
REMARK  226  A    between atoms: _548  and  _550
REMARK  227  A    between atoms: _550  and  _551
REMARK  228  A    between atoms: _550  and  _553
REMARK  229  A    between atoms: _553  and  _554
REMARK                            x       y       z     vdW  Elec       q    Type
REMARK                         _______ _______ _______ _____ _____    ______ ____
ROOT
ATOM      1  NE  ARG A   1      22.721  30.722  22.266  0.00  0.00    -0.265 N 
ATOM      2  CZ  ARG A   1      23.752  31.499  21.936  0.00  0.00    +0.342 C 
ATOM      3  NH2 ARG A   1      24.091  32.533  22.701  0.00  0.00    -0.292 N 
ATOM      4 HH21 ARG A   1      23.550  32.740  23.565  0.00  0.00    +0.255 HD
ATOM      5 HH22 ARG A   1      24.897  33.134  22.436  0.00  0.00    +0.255 HD
ATOM      6  NH1 ARG A   1      24.440  31.258  20.828  0.00  0.00    -0.292 N 
ATOM      7 HH11 ARG A   1      25.244  31.866  20.573  0.00  0.00    +0.255 HD
ATOM      8 HH12 ARG A   1      24.175  30.461  20.214  0.00  0.00    +0.255 HD
ATOM      9  HE  ARG A   1      22.497  29.922  21.640  0.00  0.00    +0.259 HD
ENDROOT
BRANCH   1  10
ATOM     10  CD  ARG A   1      21.884  30.918  23.448  0.00  0.00    +0.174 C 
BRANCH  10  11
ATOM     11  CG  ARG A   1      20.915  32.083  23.272  0.00  0.00    +0.045 C 
BRANCH  11  12
ATOM     12  CB  ARG A   1      20.113  32.313  24.533  0.00  0.00    +0.029 C 
BRANCH  12  13
ATOM     13  CA  ARG A   1      19.107  33.465  24.448  0.00  0.00    +0.133 C 
BRANCH  13  14
ATOM     14  N   ARG A   1      19.795  34.749  24.317  0.00  0.00    -0.239 NA
ATOM     15  H   ARG A   1      20.834  34.778  24.290  0.00  0.00    +0.142 HD
ENDBRANCH  13  14
BRANCH  13  16
ATOM     16  C   ARG A   1      18.258  33.476  25.719  0.00  0.00    +0.224 C 
ATOM     17  O   ARG A   1      18.717  33.936  26.768  0.00  0.00    -0.287 OA
ENDBRANCH  13  16
ENDBRANCH  12  13
ENDBRANCH  11  12
ENDBRANCH  10  11
ENDBRANCH   1  10
TORSDOF 6
REMARK  Name = ../refined-set-2016/2i4d/2i4d_pocket.pdb
REMARK  229 active torsions:
REMARK  status: ('A' for Active; 'I' for Inactive)
REMARK    1  A    between atoms: _1  and  _3
REMARK    2  A    between atoms: _3  and  _4
REMARK    3  A    between atoms: _3  and  _6
REMARK    4  A    between atoms: _6  and  _7
REMARK    5  A    between atoms: _7  and  _8
REMARK    6  A    between atoms: _8  and  _9
REMARK    7  A    between atoms: _18  and  _20
REMARK    8  A    between atoms: _20  and  _21
REMARK    9  A    between atoms: _20  and  _23
REMARK   10  A    between atoms: _23  and  _24
REMARK   11  A    between atoms: _27  and  _29
REMARK   12  A    between atoms: _29  and  _30
REMARK   13  A    between atoms: _29  and  _32
REMARK   14  A    between atoms: _32  and  _33
REMARK   15  A    between atoms: _36  and  _38
REMARK   16  A    between atoms: _38  and  _39
REMARK   17  A    between atoms: _38  and  _41
REMARK   18  A    between atoms: _41  and  _42
REMARK   19  A    between atoms: _45  and  _47
REMARK   20  A    between atoms: _47  and  _48
REMARK   21  A    between atoms: _47  and  _50
REMARK   22  A    between atoms: _50  and  _51
REMARK   23  A    between atoms: _54  and  _56
REMARK   24  A    between atoms: _56  and  _57
REMARK   25  A    between atoms: _59  and  _61
REMARK   26  A    between atoms: _61  and  _62
REMARK   27  A    between atoms: _65  and  _67
REMARK   28  A    between atoms: _67  and  _68
REMARK   29  A    between atoms: _67  and  _70
REMARK   30  A    between atoms: _70  and  _71
REMARK   31  A    between atoms: _74  and  _76
REMARK   32  A    between atoms: _76  and  _77
REMARK   33  A    between atoms: _76  and  _79
REMARK   34  A    between atoms: _79  and  _80
REMARK   35  A    between atoms: _83  and  _85
REMARK   36  A    between atoms: _85  and  _86
REMARK   37  A    between atoms: _85  and  _88
REMARK   38  A    between atoms: _88  and  _89
REMARK   39  A    between atoms: _92  and  _94
REMARK   40  A    between atoms: _94  and  _95
REMARK   41  A    between atoms: _94  and  _97
REMARK   42  A    between atoms: _100  and  _102
REMARK   43  A    between atoms: _102  and  _103
REMARK   44  A    between atoms: _102  and  _105
REMARK   45  A    between atoms: _105  and  _106
REMARK   46  A    between atoms: _106  and  _107
REMARK   47  A    between atoms: _107  and  _108
REMARK   48  A    between atoms: _108  and  _109
REMARK   49  A    between atoms: _113  and  _115
REMARK   50  A    between atoms: _115  and  _116
REMARK   51  A    between atoms: _115  and  _118
REMARK   52  A    between atoms: _118  and  _119
REMARK   53  A    between atoms: _119  and  _120
REMARK   54  A    between atoms: _122  and  _124
REMARK   55  A    between atoms: _124  and  _125
REMARK   56  A    between atoms: _124  and  _127
REMARK   57  A    between atoms: _127  and  _128
REMARK   58  A    between atoms: _131  and  _133
REMARK   59  A    between atoms: _133  and  _134
REMARK   60  A    between atoms: _136  and  _138
REMARK   61  A    between atoms: _138  and  _139
REMARK   62  A    between atoms: _141  and  _143
REMARK   63  A    between atoms: _143  and  _144
REMARK   64  A    between atoms: _143  and  _146
REMARK   65  A    between atoms: _146  and  _147
REMARK   66  A    between atoms: _150  and  _152
REMARK   67  A    between atoms: _152  and  _153
REMARK   68  A    between atoms: _155  and  _157
REMARK   69  A    between atoms: _157  and  _158
REMARK   70  A    between atoms: _160  and  _162
REMARK   71  A    between atoms: _162  and  _163
REMARK   72  A    between atoms: _162  and  _165
REMARK   73  A    between atoms: _165  and  _166
REMARK   74  A    between atoms: _172  and  _174
REMARK   75  A    between atoms: _174  and  _175
REMARK   76  A    between atoms: _174  and  _177
REMARK   77  A    between atoms: _177  and  _178
REMARK   78  A    between atoms: _181  and  _183
REMARK   79  A    between atoms: _183  and  _184
REMARK   80  A    between atoms: _183  and  _186
REMARK   81  A    between atoms: _189  and  _191
REMARK   82  A    between atoms: _191  and  _192
REMARK   83  A    between atoms: _191  and  _194
REMARK   84  A    between atoms: _194  and  _195
REMARK   85  A    between atoms: _198  and  _200
REMARK   86  A    between atoms: _200  and  _201
REMARK   87  A    between atoms: _200  and  _203
REMARK   88  A    between atoms: _203  and  _204
REMARK   89  A    between atoms: _208  and  _209
REMARK   90  A    between atoms: _214  and  _216
REMARK   91  A    between atoms: _216  and  _217
REMARK   92  A    between atoms: _216  and  _219
REMARK   93  A    between atoms: _222  and  _224
REMARK   94  A    between atoms: _224  and  _225
REMARK   95  A    between atoms: _224  and  _227
REMARK   96  A    between atoms: _227  and  _228
REMARK   97  A    between atoms: _233  and  _235
REMARK   98  A    between atoms: _235  and  _236
REMARK   99  A    between atoms: _235  and  _238
REMARK  100  A    between atoms: _238  and  _239
REMARK  101  A    between atoms: _242  and  _244
REMARK  102  A    between atoms: _244  and  _245
REMARK  103  A    between atoms: _244  and  _247
REMARK  104  A    between atoms: _247  and  _248
REMARK  105  A    between atoms: _251  and  _253
REMARK  106  A    between atoms: _253  and  _254
REMARK  107  A    between atoms: _256  and  _258
REMARK  108  A    between atoms: _258  and  _259
REMARK  109  A    between atoms: _258  and  _261
REMARK  110  A    between atoms: _261  and  _262
REMARK  111  A    between atoms: _262  and  _263
REMARK  112  A    between atoms: _263  and  _264
REMARK  113  A    between atoms: _273  and  _275
REMARK  114  A    between atoms: _275  and  _276
REMARK  115  A    between atoms: _275  and  _278
REMARK  116  A    between atoms: _278  and  _279
REMARK  117  A    between atoms: _284  and  _286
REMARK  118  A    between atoms: _286  and  _287
REMARK  119  A    between atoms: _286  and  _289
REMARK  120  A    between atoms: _289  and  _290
REMARK  121  A    between atoms: _290  and  _291
REMARK  122  A    between atoms: _291  and  _292
REMARK  123  A    between atoms: _301  and  _303
REMARK  124  A    between atoms: _303  and  _304
REMARK  125  A    between atoms: _303  and  _306
REMARK  126  A    between atoms: _306  and  _307
REMARK  127  A    between atoms: _310  and  _312
REMARK  128  A    between atoms: _312  and  _313
REMARK  129  A    between atoms: _312  and  _315
REMARK  130  A    between atoms: _315  and  _316
REMARK  131  A    between atoms: _319  and  _321
REMARK  132  A    between atoms: _321  and  _322
REMARK  133  A    between atoms: _321  and  _324
REMARK  134  A    between atoms: _324  and  _325
REMARK  135  A    between atoms: _328  and  _330
REMARK  136  A    between atoms: _330  and  _331
REMARK  137  A    between atoms: _330  and  _333
REMARK  138  A    between atoms: _333  and  _334
REMARK  139  A    between atoms: _337  and  _339
REMARK  140  A    between atoms: _339  and  _340
REMARK  141  A    between atoms: _342  and  _344
REMARK  142  A    between atoms: _344  and  _345
REMARK  143  A    between atoms: _348  and  _350
REMARK  144  A    between atoms: _350  and  _351
REMARK  145  A    between atoms: _350  and  _353
REMARK  146  A    between atoms: _353  and  _354
REMARK  147  A    between atoms: _357  and  _359
REMARK  148  A    between atoms: _359  and  _360
REMARK  149  A    between atoms: _359  and  _362
REMARK  150  A    between atoms: _362  and  _363
REMARK  151  A    between atoms: _366  and  _368
REMARK  152  A    between atoms: _368  and  _369
REMARK  153  A    between atoms: _368  and  _371
REMARK  154  A    between atoms: _371  and  _372
REMARK  155  A    between atoms: _375  and  _377
REMARK  156  A    between atoms: _377  and  _378
REMARK  157  A    between atoms: _377  and  _380
REMARK  158  A    between atoms: _383  and  _385
REMARK  159  A    between atoms: _385  and  _386
REMARK  160  A    between atoms: _385  and  _388
REMARK  161  A    between atoms: _388  and  _389
REMARK  162  A    between atoms: _389  and  _390
REMARK  163  A    between atoms: _390  and  _391
REMARK  164  A    between atoms: _391  and  _392
REMARK  165  A    between atoms: _396  and  _398
REMARK  166  A    between atoms: _398  and  _399
REMARK  167  A    between atoms: _398  and  _401
REMARK  168  A    between atoms: _401  and  _402
REMARK  169  A    between atoms: _402  and  _403
REMARK  170  A    between atoms: _405  and  _407
REMARK  171  A    between atoms: _407  and  _408
REMARK  172  A    between atoms: _407  and  _410
REMARK  173  A    between atoms: _410  and  _411
REMARK  174  A    between atoms: _414  and  _416
REMARK  175  A    between atoms: _416  and  _417
REMARK  176  A    between atoms: _419  and  _421
REMARK  177  A    between atoms: _421  and  _422
REMARK  178  A    between atoms: _424  and  _426
REMARK  179  A    between atoms: _426  and  _427
REMARK  180  A    between atoms: _426  and  _429
REMARK  181  A    between atoms: _429  and  _430
REMARK  182  A    between atoms: _433  and  _435
REMARK  183  A    between atoms: _435  and  _436
REMARK  184  A    between atoms: _438  and  _440
REMARK  185  A    between atoms: _440  and  _441
REMARK  186  A    between atoms: _443  and  _445
REMARK  187  A    between atoms: _445  and  _446
REMARK  188  A    between atoms: _445  and  _448
REMARK  189  A    between atoms: _448  and  _449
REMARK  190  A    between atoms: _455  and  _457
REMARK  191  A    between atoms: _457  and  _458
REMARK  192  A    between atoms: _457  and  _460
REMARK  193  A    between atoms: _460  and  _461
REMARK  194  A    between atoms: _464  and  _466
REMARK  195  A    between atoms: _466  and  _467
REMARK  196  A    between atoms: _466  and  _469
REMARK  197  A    between atoms: _469  and  _470
REMARK  198  A    between atoms: _473  and  _475
REMARK  199  A    between atoms: _475  and  _476
REMARK  200  A    between atoms: _475  and  _478
REMARK  201  A    between atoms: _478  and  _479
REMARK  202  A    between atoms: _483  and  _484
REMARK  203  A    between atoms: _489  and  _491
REMARK  204  A    between atoms: _491  and  _492
REMARK  205  A    between atoms: _491  and  _494
REMARK  206  A    between atoms: _497  and  _499
REMARK  207  A    between atoms: _499  and  _500
REMARK  208  A    between atoms: _499  and  _502
REMARK  209  A    between atoms: _502  and  _503
REMARK  210  A    between atoms: _508  and  _510
REMARK  211  A    between atoms: _510  and  _511
REMARK  212  A    between atoms: _510  and  _513
REMARK  213  A    between atoms: _513  and  _514
REMARK  214  A    between atoms: _517  and  _519
REMARK  215  A    between atoms: _519  and  _520
REMARK  216  A    between atoms: _519  and  _522
REMARK  217  A    between atoms: _522  and  _523
REMARK  218  A    between atoms: _526  and  _528
REMARK  219  A    between atoms: _528  and  _529
REMARK  220  A    between atoms: _531  and  _533
REMARK  221  A    between atoms: _533  and  _534
REMARK  222  A    between atoms: _533  and  _536
REMARK  223  A    between atoms: _536  and  _537
REMARK  224  A    between atoms: _537  and  _538
REMARK  225  A    between atoms: _538  and  _539
REMARK  226  A    between atoms: _548  and  _550
REMARK  227  A    between atoms: _550  and  _551
REMARK  228  A    between atoms: _550  and  _553
REMARK  229  A    between atoms: _553  and  _554
REMARK                            x       y       z     vdW  Elec       q    Type
REMARK                         _______ _______ _______ _____ _____    ______ ____
ROOT
ATOM      1  C   GLY A   5      10.397  24.178  18.703  0.00  0.00    +0.243 C 
ATOM      2  N   ALA A   6      10.328  23.858  19.988  0.00  0.00    -0.297 N 
ATOM      3  H   ALA A   6      10.220  24.614  20.694  0.00  0.00    +0.150 HD
ATOM      4  O   GLY A   5      10.521  23.332  17.812  0.00  0.00    -0.273 OA
ENDROOT
BRANCH   2   5
ATOM      5  CA  ALA A   6      10.400  22.477  20.434  0.00  0.00    +0.149 C 
ATOM      6  CB  ALA A   6      11.466  22.340  21.526  0.00  0.00    +0.031 C 
BRANCH   5   7
ATOM      7  C   ALA A   6       9.043  22.027  20.968  0.00  0.00    +0.241 C 
ATOM      8  O   ALA A   6       8.460  22.695  21.821  0.00  0.00    -0.273 OA
ATOM      9  N   ASP A   7       8.530  20.915  20.443  0.00  0.00    -0.297 N 
ATOM     10  H   ASP A   7       9.044  20.428  19.682  0.00  0.00    +0.150 HD
BRANCH   9  11
ATOM     11  CA  ASP A   7       7.257  20.364  20.915  0.00  0.00    +0.160 C 
BRANCH  11  12
ATOM     12  C   ASP A   7       7.456  19.810  22.322  0.00  0.00    +0.241 C 
ATOM     13  O   ASP A   7       6.596  19.962  23.187  0.00  0.00    -0.273 OA
ATOM     14  N   ASP A   8       8.605  19.166  22.528  0.00  0.00    -0.297 N 
ATOM     15  H   ASP A   8       9.297  19.115  21.753  0.00  0.00    +0.150 HD
BRANCH  14  16
ATOM     16  CA  ASP A   8       8.927  18.531  23.798  0.00  0.00    +0.160 C 
BRANCH  16  17
ATOM     17  C   ASP A   8      10.119  19.110  24.524  0.00  0.00    +0.241 C 
ATOM     18  N   THR A   9      10.198  18.764  25.805  0.00  0.00    -0.295 N 
ATOM     19  H   THR A   9       9.448  18.160  26.198  0.00  0.00    +0.150 HD
ATOM     20  O   ASP A   8      10.952  19.807  23.940  0.00  0.00    -0.273 OA
BRANCH  18  21
ATOM     21  CA  THR A   9      11.278  19.185  26.689  0.00  0.00    +0.176 C 
BRANCH  21  22
ATOM     22  C   THR A   9      12.384  18.120  26.678  0.00  0.00    +0.243 C 
ATOM     23  O   THR A   9      12.144  16.959  27.015  0.00  0.00    -0.273 OA
ATOM     24  N   VAL A  10      13.584  18.512  26.268  0.00  0.00    -0.298 N 
ATOM     25  H   VAL A  10      13.730  19.504  25.991  0.00  0.00    +0.150 HD
BRANCH  24  26
ATOM     26  CA  VAL A  10      14.696  17.581  26.200  0.00  0.00    +0.137 C 
BRANCH  26  27
ATOM     27  CB  VAL A  10      15.181  17.393  24.748  0.00  0.00    +0.026 C 
ATOM     28  CG2 VAL A  10      16.174  16.232  24.665  0.00  0.00    +0.002 C 
ATOM     29  CG1 VAL A  10      13.996  17.142  23.823  0.00  0.00    +0.002 C 
ENDBRANCH  26  27
BRANCH  26  30
ATOM     30  C   VAL A  10      15.844  18.068  27.071  0.00  0.00    +0.227 C 
ATOM     31  O   VAL A  10      16.325  19.190  26.915  0.00  0.00    -0.286 OA
ENDBRANCH  26  30
ENDBRANCH  24  26
ENDBRANCH  21  22
BRANCH  21  32
ATOM     32  CB  THR A   9      10.747  19.395  28.122  0.00  0.00    +0.137 C 
ATOM     33  CG2 THR A   9      11.881  19.649  29.092  0.00  0.00    +0.034 C 
BRANCH  32  34
ATOM     34  OG1 THR A   9       9.849  20.513  28.129  0.00  0.00    -0.382 OA
ATOM     35  HG1 THR A   9       9.093  20.332  27.516  0.00  0.00    +0.210 HD
ENDBRANCH  32  34
ENDBRANCH  21  32
ENDBRANCH  18  21
ENDBRANCH  16  17
BRANCH  16  36
ATOM     36  CB  ASP A   8       9.204  17.048  23.575  0.00  0.00    +0.143 C 
BRANCH  36  37
ATOM     37  CG  ASP A   8       8.175  16.397  22.701  0.00  0.00    +0.367 C 
ATOM     38  OD2 ASP A   8       6.974  16.514  23.001  0.00  0.00    -0.246 OA
ATOM     39  OD1 ASP A   8       8.576  15.784  21.698  0.00  0.00    -0.246 OA
ENDBRANCH  36  37
ENDBRANCH  16  36
ENDBRANCH  14  16
ENDBRANCH  11  12
BRANCH  11  40
ATOM     40  CB  ASP A   7       6.795  19.186  20.046  0.00  0.00    +0.143 C 
BRANCH  40  41
ATOM     41  CG  ASP A   7       6.483  19.571  18.612  0.00  0.00    +0.367 C 
ATOM     42  OD2 ASP A   7       6.326  20.768  18.294  0.00  0.00    -0.246 OA
ATOM     43  OD1 ASP A   7       6.385  18.637  17.788  0.00  0.00    -0.246 OA
ENDBRANCH  40  41
ENDBRANCH  11  40
ENDBRANCH   9  11
ENDBRANCH   5   7
ENDBRANCH   2   5
BRANCH   1  44
ATOM     44  CA  GLY A   5      10.310  25.667  18.382  0.00  0.00    +0.176 C 
BRANCH  44  47
ATOM     45  C   THR A   4       9.007  26.805  20.088  0.00  0.00    +0.243 C 
ATOM     46  O   THR A   4       7.945  26.402  19.613  0.00  0.00    -0.273 OA
ATOM     47  N   GLY A   5      10.199  26.501  19.570  0.00  0.00    -0.295 N 
ATOM     48  H   GLY A   5      11.062  26.866  20.022  0.00  0.00    +0.150 HD
BRANCH  45  49
ATOM     49  CA  THR A   4       9.008  27.676  21.348  0.00  0.00    +0.176 C 
BRANCH  49  52
ATOM     50  C   ASP A   3      10.861  26.720  22.597  0.00  0.00    +0.241 C 
ATOM     51  O   ASP A   3      10.323  25.611  22.632  0.00  0.00    -0.273 OA
ATOM     52  N   THR A   4      10.325  27.761  21.968  0.00  0.00    -0.295 N 
ATOM     53  H   THR A   4      10.856  28.654  21.917  0.00  0.00    +0.150 HD
BRANCH  50  54
ATOM     54  CA  ASP A   3      12.243  26.941  23.201  0.00  0.00    +0.160 C 
BRANCH  54  56
ATOM     55  C   LEU A   2      12.795  28.327  25.126  0.00  0.00    +0.241 C 
ATOM     56  N   ASP A   3      12.246  27.222  24.629  0.00  0.00    -0.297 N 
ATOM     57  H   ASP A   3      11.807  26.540  25.279  0.00  0.00    +0.150 HD
ATOM     58  O   LEU A   2      13.242  29.237  24.422  0.00  0.00    -0.273 OA
BRANCH  55  59
ATOM     59  CA  LEU A   2      12.837  28.426  26.648  0.00  0.00    +0.149 C 
BRANCH  59  61
ATOM     60  C   LEU A   1      14.992  27.275  26.756  0.00  0.00    +0.238 C 
ATOM     61  N   LEU A   2      14.270  28.379  26.960  0.00  0.00    -0.297 N 
ATOM     62  H   LEU A   2      14.734  29.225  27.349  0.00  0.00    +0.150 HD
ATOM     63  O   LEU A   1      14.494  26.223  26.353  0.00  0.00    -0.274 OA
BRANCH  60  64
ATOM     64  CA  LEU A   1      16.490  27.349  27.061  0.00  0.00    +0.145 C 
BRANCH  64  65
ATOM     65  N   LEU A   1      16.894  26.386  28.071  0.00  0.00    -0.238 NA
ATOM     66  H   LEU A   1      16.989  25.387  27.797  0.00  0.00    +0.142 HD
ENDBRANCH  64  65
BRANCH  64  67
ATOM     67  CB  LEU A   1      17.296  27.072  25.783  0.00  0.00    +0.026 C 
BRANCH  67  68
ATOM     68  CG  LEU A   1      17.107  27.934  24.536  0.00  0.00    +0.002 C 
ATOM     69  CD2 LEU A   1      17.661  29.325  24.780  0.00  0.00    +0.000 C 
ATOM     70  CD1 LEU A   1      17.816  27.280  23.357  0.00  0.00    +0.000 C 
ENDBRANCH  67  68
ENDBRANCH  64  67
ENDBRANCH  60  64
ENDBRANCH  59  61
BRANCH  59  71
ATOM     71  CB  LEU A   2      12.222  29.739  27.123  0.00  0.00    +0.029 C 
BRANCH  71  72
ATOM     72  CG  LEU A   2      12.314  29.986  28.627  0.00  0.00    +0.002 C 
ATOM     73  CD2 LEU A   2      11.640  28.862  29.383  0.00  0.00    +0.000 C 
ATOM     74  CD1 LEU A   2      11.671  31.319  28.961  0.00  0.00    +0.000 C 
ENDBRANCH  71  72
ENDBRANCH  59  71
ENDBRANCH  55  59
ENDBRANCH  54  56
BRANCH  54  75
ATOM     75  CB  ASP A   3      13.131  25.705  22.992  0.00  0.00    +0.143 C 
BRANCH  75  76
ATOM     76  CG  ASP A   3      13.488  25.453  21.545  0.00  0.00    +0.367 C 
ATOM     77  OD2 ASP A   3      14.375  24.606  21.316  0.00  0.00    -0.246 OA
ATOM     78  OD1 ASP A   3      12.898  26.078  20.644  0.00  0.00    -0.246 OA
ENDBRANCH  75  76
ENDBRANCH  54  75
ENDBRANCH  50  54
ENDBRANCH  49  52
BRANCH  49  79
ATOM     79  CB  THR A   4       8.425  29.087  21.026  0.00  0.00    +0.137 C 
ATOM     80  CG2 THR A   4       8.278  29.898  22.305  0.00  0.00    +0.034 C 
BRANCH  79  81
ATOM     81  OG1 THR A   4       9.286  29.786  20.115  0.00  0.00    -0.382 OA
ATOM     82  HG1 THR A   4       9.365  29.269  19.274  0.00  0.00    +0.210 HD
ENDBRANCH  79  81
ENDBRANCH  49  79
ENDBRANCH  45  49
ENDBRANCH  44  47
ENDBRANCH   1  44
TORSDOF 35
REMARK  Name = ../refined-set-2016/2i4d/2i4d_pocket.pdb
REMARK  229 active torsions:
REMARK  status: ('A' for Active; 'I' for Inactive)
REMARK    1  A    between atoms: _1  and  _3
REMARK    2  A    between atoms: _3  and  _4
REMARK    3  A    between atoms: _3  and  _6
REMARK    4  A    between atoms: _6  and  _7
REMARK    5  A    between atoms: _7  and  _8
REMARK    6  A    between atoms: _8  and  _9
REMARK    7  A    between atoms: _18  and  _20
REMARK    8  A    between atoms: _20  and  _21
REMARK    9  A    between atoms: _20  and  _23
REMARK   10  A    between atoms: _23  and  _24
REMARK   11  A    between atoms: _27  and  _29
REMARK   12  A    between atoms: _29  and  _30
REMARK   13  A    between atoms: _29  and  _32
REMARK   14  A    between atoms: _32  and  _33
REMARK   15  A    between atoms: _36  and  _38
REMARK   16  A    between atoms: _38  and  _39
REMARK   17  A    between atoms: _38  and  _41
REMARK   18  A    between atoms: _41  and  _42
REMARK   19  A    between atoms: _45  and  _47
REMARK   20  A    between atoms: _47  and  _48
REMARK   21  A    between atoms: _47  and  _50
REMARK   22  A    between atoms: _50  and  _51
REMARK   23  A    between atoms: _54  and  _56
REMARK   24  A    between atoms: _56  and  _57
REMARK   25  A    between atoms: _59  and  _61
REMARK   26  A    between atoms: _61  and  _62
REMARK   27  A    between atoms: _65  and  _67
REMARK   28  A    between atoms: _67  and  _68
REMARK   29  A    between atoms: _67  and  _70
REMARK   30  A    between atoms: _70  and  _71
REMARK   31  A    between atoms: _74  and  _76
REMARK   32  A    between atoms: _76  and  _77
REMARK   33  A    between atoms: _76  and  _79
REMARK   34  A    between atoms: _79  and  _80
REMARK   35  A    between atoms: _83  and  _85
REMARK   36  A    between atoms: _85  and  _86
REMARK   37  A    between atoms: _85  and  _88
REMARK   38  A    between atoms: _88  and  _89
REMARK   39  A    between atoms: _92  and  _94
REMARK   40  A    between atoms: _94  and  _95
REMARK   41  A    between atoms: _94  and  _97
REMARK   42  A    between atoms: _100  and  _102
REMARK   43  A    between atoms: _102  and  _103
REMARK   44  A    between atoms: _102  and  _105
REMARK   45  A    between atoms: _105  and  _106
REMARK   46  A    between atoms: _106  and  _107
REMARK   47  A    between atoms: _107  and  _108
REMARK   48  A    between atoms: _108  and  _109
REMARK   49  A    between atoms: _113  and  _115
REMARK   50  A    between atoms: _115  and  _116
REMARK   51  A    between atoms: _115  and  _118
REMARK   52  A    between atoms: _118  and  _119
REMARK   53  A    between atoms: _119  and  _120
REMARK   54  A    between atoms: _122  and  _124
REMARK   55  A    between atoms: _124  and  _125
REMARK   56  A    between atoms: _124  and  _127
REMARK   57  A    between atoms: _127  and  _128
REMARK   58  A    between atoms: _131  and  _133
REMARK   59  A    between atoms: _133  and  _134
REMARK   60  A    between atoms: _136  and  _138
REMARK   61  A    between atoms: _138  and  _139
REMARK   62  A    between atoms: _141  and  _143
REMARK   63  A    between atoms: _143  and  _144
REMARK   64  A    between atoms: _143  and  _146
REMARK   65  A    between atoms: _146  and  _147
REMARK   66  A    between atoms: _150  and  _152
REMARK   67  A    between atoms: _152  and  _153
REMARK   68  A    between atoms: _155  and  _157
REMARK   69  A    between atoms: _157  and  _158
REMARK   70  A    between atoms: _160  and  _162
REMARK   71  A    between atoms: _162  and  _163
REMARK   72  A    between atoms: _162  and  _165
REMARK   73  A    between atoms: _165  and  _166
REMARK   74  A    between atoms: _172  and  _174
REMARK   75  A    between atoms: _174  and  _175
REMARK   76  A    between atoms: _174  and  _177
REMARK   77  A    between atoms: _177  and  _178
REMARK   78  A    between atoms: _181  and  _183
REMARK   79  A    between atoms: _183  and  _184
REMARK   80  A    between atoms: _183  and  _186
REMARK   81  A    between atoms: _189  and  _191
REMARK   82  A    between atoms: _191  and  _192
REMARK   83  A    between atoms: _191  and  _194
REMARK   84  A    between atoms: _194  and  _195
REMARK   85  A    between atoms: _198  and  _200
REMARK   86  A    between atoms: _200  and  _201
REMARK   87  A    between atoms: _200  and  _203
REMARK   88  A    between atoms: _203  and  _204
REMARK   89  A    between atoms: _208  and  _209
REMARK   90  A    between atoms: _214  and  _216
REMARK   91  A    between atoms: _216  and  _217
REMARK   92  A    between atoms: _216  and  _219
REMARK   93  A    between atoms: _222  and  _224
REMARK   94  A    between atoms: _224  and  _225
REMARK   95  A    between atoms: _224  and  _227
REMARK   96  A    between atoms: _227  and  _228
REMARK   97  A    between atoms: _233  and  _235
REMARK   98  A    between atoms: _235  and  _236
REMARK   99  A    between atoms: _235  and  _238
REMARK  100  A    between atoms: _238  and  _239
REMARK  101  A    between atoms: _242  and  _244
REMARK  102  A    between atoms: _244  and  _245
REMARK  103  A    between atoms: _244  and  _247
REMARK  104  A    between atoms: _247  and  _248
REMARK  105  A    between atoms: _251  and  _253
REMARK  106  A    between atoms: _253  and  _254
REMARK  107  A    between atoms: _256  and  _258
REMARK  108  A    between atoms: _258  and  _259
REMARK  109  A    between atoms: _258  and  _261
REMARK  110  A    between atoms: _261  and  _262
REMARK  111  A    between atoms: _262  and  _263
REMARK  112  A    between atoms: _263  and  _264
REMARK  113  A    between atoms: _273  and  _275
REMARK  114  A    between atoms: _275  and  _276
REMARK  115  A    between atoms: _275  and  _278
REMARK  116  A    between atoms: _278  and  _279
REMARK  117  A    between atoms: _284  and  _286
REMARK  118  A    between atoms: _286  and  _287
REMARK  119  A    between atoms: _286  and  _289
REMARK  120  A    between atoms: _289  and  _290
REMARK  121  A    between atoms: _290  and  _291
REMARK  122  A    between atoms: _291  and  _292
REMARK  123  A    between atoms: _301  and  _303
REMARK  124  A    between atoms: _303  and  _304
REMARK  125  A    between atoms: _303  and  _306
REMARK  126  A    between atoms: _306  and  _307
REMARK  127  A    between atoms: _310  and  _312
REMARK  128  A    between atoms: _312  and  _313
REMARK  129  A    between atoms: _312  and  _315
REMARK  130  A    between atoms: _315  and  _316
REMARK  131  A    between atoms: _319  and  _321
REMARK  132  A    between atoms: _321  and  _322
REMARK  133  A    between atoms: _321  and  _324
REMARK  134  A    between atoms: _324  and  _325
REMARK  135  A    between atoms: _328  and  _330
REMARK  136  A    between atoms: _330  and  _331
REMARK  137  A    between atoms: _330  and  _333
REMARK  138  A    between atoms: _333  and  _334
REMARK  139  A    between atoms: _337  and  _339
REMARK  140  A    between atoms: _339  and  _340
REMARK  141  A    between atoms: _342  and  _344
REMARK  142  A    between atoms: _344  and  _345
REMARK  143  A    between atoms: _348  and  _350
REMARK  144  A    between atoms: _350  and  _351
REMARK  145  A    between atoms: _350  and  _353
REMARK  146  A    between atoms: _353  and  _354
REMARK  147  A    between atoms: _357  and  _359
REMARK  148  A    between atoms: _359  and  _360
REMARK  149  A    between atoms: _359  and  _362
REMARK  150  A    between atoms: _362  and  _363
REMARK  151  A    between atoms: _366  and  _368
REMARK  152  A    between atoms: _368  and  _369
REMARK  153  A    between atoms: _368  and  _371
REMARK  154  A    between atoms: _371  and  _372
REMARK  155  A    between atoms: _375  and  _377
REMARK  156  A    between atoms: _377  and  _378
REMARK  157  A    between atoms: _377  and  _380
REMARK  158  A    between atoms: _383  and  _385
REMARK  159  A    between atoms: _385  and  _386
REMARK  160  A    between atoms: _385  and  _388
REMARK  161  A    between atoms: _388  and  _389
REMARK  162  A    between atoms: _389  and  _390
REMARK  163  A    between atoms: _390  and  _391
REMARK  164  A    between atoms: _391  and  _392
REMARK  165  A    between atoms: _396  and  _398
REMARK  166  A    between atoms: _398  and  _399
REMARK  167  A    between atoms: _398  and  _401
REMARK  168  A    between atoms: _401  and  _402
REMARK  169  A    between atoms: _402  and  _403
REMARK  170  A    between atoms: _405  and  _407
REMARK  171  A    between atoms: _407  and  _408
REMARK  172  A    between atoms: _407  and  _410
REMARK  173  A    between atoms: _410  and  _411
REMARK  174  A    between atoms: _414  and  _416
REMARK  175  A    between atoms: _416  and  _417
REMARK  176  A    between atoms: _419  and  _421
REMARK  177  A    between atoms: _421  and  _422
REMARK  178  A    between atoms: _424  and  _426
REMARK  179  A    between atoms: _426  and  _427
REMARK  180  A    between atoms: _426  and  _429
REMARK  181  A    between atoms: _429  and  _430
REMARK  182  A    between atoms: _433  and  _435
REMARK  183  A    between atoms: _435  and  _436
REMARK  184  A    between atoms: _438  and  _440
REMARK  185  A    between atoms: _440  and  _441
REMARK  186  A    between atoms: _443  and  _445
REMARK  187  A    between atoms: _445  and  _446
REMARK  188  A    between atoms: _445  and  _448
REMARK  189  A    between atoms: _448  and  _449
REMARK  190  A    between atoms: _455  and  _457
REMARK  191  A    between atoms: _457  and  _458
REMARK  192  A    between atoms: _457  and  _460
REMARK  193  A    between atoms: _460  and  _461
REMARK  194  A    between atoms: _464  and  _466
REMARK  195  A    between atoms: _466  and  _467
REMARK  196  A    between atoms: _466  and  _469
REMARK  197  A    between atoms: _469  and  _470
REMARK  198  A    between atoms: _473  and  _475
REMARK  199  A    between atoms: _475  and  _476
REMARK  200  A    between atoms: _475  and  _478
REMARK  201  A    between atoms: _478  and  _479
REMARK  202  A    between atoms: _483  and  _484
REMARK  203  A    between atoms: _489  and  _491
REMARK  204  A    between atoms: _491  and  _492
REMARK  205  A    between atoms: _491  and  _494
REMARK  206  A    between atoms: _497  and  _499
REMARK  207  A    between atoms: _499  and  _500
REMARK  208  A    between atoms: _499  and  _502
REMARK  209  A    between atoms: _502  and  _503
REMARK  210  A    between atoms: _508  and  _510
REMARK  211  A    between atoms: _510  and  _511
REMARK  212  A    between atoms: _510  and  _513
REMARK  213  A    between atoms: _513  and  _514
REMARK  214  A    between atoms: _517  and  _519
REMARK  215  A    between atoms: _519  and  _520
REMARK  216  A    between atoms: _519  and  _522
REMARK  217  A    between atoms: _522  and  _523
REMARK  218  A    between atoms: _526  and  _528
REMARK  219  A    between atoms: _528  and  _529
REMARK  220  A    between atoms: _531  and  _533
REMARK  221  A    between atoms: _533  and  _534
REMARK  222  A    between atoms: _533  and  _536
REMARK  223  A    between atoms: _536  and  _537
REMARK  224  A    between atoms: _537  and  _538
REMARK  225  A    between atoms: _538  and  _539
REMARK  226  A    between atoms: _548  and  _550
REMARK  227  A    between atoms: _550  and  _551
REMARK  228  A    between atoms: _550  and  _553
REMARK  229  A    between atoms: _553  and  _554
REMARK                            x       y       z     vdW  Elec       q    Type
REMARK                         _______ _______ _______ _____ _____    ______ ____
ROOT
ATOM      1  C   GLY A   5      16.388  18.320  13.903  0.00  0.00    +0.243 C 
ATOM      2  N   ILE A   6      17.211  19.360  13.960  0.00  0.00    -0.297 N 
ATOM      3  H   ILE A   6      17.519  19.723  14.885  0.00  0.00    +0.150 HD
ATOM      4  O   GLY A   5      16.028  17.812  12.838  0.00  0.00    -0.273 OA
ENDROOT
BRANCH   2   5
ATOM      5  CA  ILE A   6      17.685  19.995  12.744  0.00  0.00    +0.149 C 
BRANCH   5   6
ATOM      6  C   ILE A   6      18.687  19.107  11.998  0.00  0.00    +0.241 C 
ATOM      7  N   GLY A   7      19.447  18.314  12.751  0.00  0.00    -0.295 N 
ATOM      8  H   GLY A   7      19.328  18.318  13.784  0.00  0.00    +0.150 HD
ATOM      9  O   ILE A   6      18.722  19.101  10.768  0.00  0.00    -0.273 OA
BRANCH   7  10
ATOM     10  CA  GLY A   7      20.441  17.443  12.144  0.00  0.00    +0.176 C 
BRANCH  10  11
ATOM     11  C   GLY A   7      20.040  15.988  11.966  0.00  0.00    +0.243 C 
ATOM     12  N   GLY A   8      18.802  15.653  12.313  0.00  0.00    -0.295 N 
ATOM     13  H   GLY A   8      18.159  16.379  12.689  0.00  0.00    +0.150 HD
ATOM     14  O   GLY A   7      20.846  15.179  11.520  0.00  0.00    -0.273 OA
BRANCH  12  15
ATOM     15  CA  GLY A   8      18.337  14.287  12.174  0.00  0.00    +0.176 C 
BRANCH  15  16
ATOM     16  C   GLY A   8      17.650  13.777  13.427  0.00  0.00    +0.243 C 
ATOM     17  O   GLY A   8      17.311  14.547  14.325  0.00  0.00    -0.273 OA
ATOM     18  N   PHE A   9      17.476  12.462  13.506  0.00  0.00    -0.297 N 
ATOM     19  H   PHE A   9      17.817  11.855  12.733  0.00  0.00    +0.150 HD
BRANCH  18  20
ATOM     20  CA  PHE A   9      16.817  11.854  14.654  0.00  0.00    +0.153 C 
BRANCH  20  21
ATOM     21  C   PHE A   9      17.785  11.312  15.697  0.00  0.00    +0.241 C 
ATOM     22  N   ILE A  10      17.317  11.259  16.941  0.00  0.00    -0.298 N 
ATOM     23  H   ILE A  10      16.359  11.615  17.131  0.00  0.00    +0.150 HD
ATOM     24  O   PHE A   9      18.949  11.036  15.400  0.00  0.00    -0.273 OA
BRANCH  22  25
ATOM     25  CA  ILE A  10      18.099  10.719  18.048  0.00  0.00    +0.137 C 
BRANCH  25  26
ATOM     26  C   ILE A  10      17.133   9.957  18.936  0.00  0.00    +0.227 C 
ATOM     27  O   ILE A  10      15.912  10.092  18.810  0.00  0.00    -0.286 OA
ENDBRANCH  25  26
BRANCH  25  28
ATOM     28  CB  ILE A  10      18.777  11.801  18.938  0.00  0.00    +0.026 C 
ATOM     29  CG2 ILE A  10      19.743  12.647  18.130  0.00  0.00    +0.002 C 
BRANCH  28  30
ATOM     30  CG1 ILE A  10      17.718  12.650  19.648  0.00  0.00    +0.002 C 
ATOM     31  CD1 ILE A  10      18.267  13.536  20.738  0.00  0.00    +0.000 C 
ENDBRANCH  28  30
ENDBRANCH  25  28
ENDBRANCH  22  25
ENDBRANCH  20  21
BRANCH  20  32
ATOM     32  CB  PHE A   9      15.861  10.748  14.191  0.00  0.00    +0.055 C 
BRANCH  32  33
ATOM     33  CG  PHE A   9      14.663  11.258  13.434  0.00  0.00    -0.020 A 
ATOM     34  CD2 PHE A   9      13.438  11.424  14.078  0.00  0.00    -0.004 A 
ATOM     35  CE2 PHE A   9      12.325  11.913  13.388  0.00  0.00    -0.000 A 
ATOM     36  CZ  PHE A   9      12.435  12.241  12.035  0.00  0.00    -0.000 A 
ATOM     37  CE1 PHE A   9      13.653  12.079  11.379  0.00  0.00    -0.000 A 
ATOM     38  CD1 PHE A   9      14.760  11.587  12.081  0.00  0.00    -0.004 A 
ENDBRANCH  32  33
ENDBRANCH  20  32
ENDBRANCH  18  20
ENDBRANCH  15  16
ENDBRANCH  12  15
ENDBRANCH  10  11
ENDBRANCH   7  10
ENDBRANCH   5   6
BRANCH   5  39
ATOM     39  CB  ILE A   6      18.296  21.386  13.040  0.00  0.00    +0.027 C 
ATOM     40  CG2 ILE A   6      19.723  21.249  13.555  0.00  0.00    +0.002 C 
BRANCH  39  41
ATOM     41  CG1 ILE A   6      18.231  22.261  11.787  0.00  0.00    +0.002 C 
ATOM     42  CD1 ILE A   6      18.723  23.680  11.982  0.00  0.00    +0.000 C 
ENDBRANCH  39  41
ENDBRANCH   5  39
ENDBRANCH   2   5
BRANCH   1  43
ATOM     43  CA  GLY A   5      15.934  17.737  15.227  0.00  0.00    +0.176 C 
BRANCH  43  46
ATOM     44  C   GLY A   4      14.212  16.052  15.427  0.00  0.00    +0.243 C 
ATOM     45  O   GLY A   4      13.463  16.819  16.028  0.00  0.00    -0.273 OA
ATOM     46  N   GLY A   5      15.421  16.399  15.008  0.00  0.00    -0.295 N 
ATOM     47  H   GLY A   5      16.011  15.700  14.514  0.00  0.00    +0.150 HD
BRANCH  44  48
ATOM     48  CA  GLY A   4      13.795  14.629  15.117  0.00  0.00    +0.176 C 
BRANCH  48  51
ATOM     49  C   ILE A   3      13.542  13.215  17.059  0.00  0.00    +0.241 C 
ATOM     50  O   ILE A   3      14.735  12.885  17.034  0.00  0.00    -0.273 OA
ATOM     51  N   GLY A   4      12.991  14.030  16.165  0.00  0.00    -0.295 N 
ATOM     52  H   GLY A   4      11.974  14.240  16.218  0.00  0.00    +0.150 HD
BRANCH  49  53
ATOM     53  CA  ILE A   3      12.596  12.663  18.118  0.00  0.00    +0.149 C 
BRANCH  53  55
ATOM     54  C   MET A   2      11.992  10.327  18.319  0.00  0.00    +0.241 C 
ATOM     55  N   ILE A   3      12.918  11.273  18.419  0.00  0.00    -0.297 N 
ATOM     56  H   ILE A   3      13.882  11.020  18.715  0.00  0.00    +0.150 HD
ATOM     57  O   MET A   2      10.817  10.573  18.055  0.00  0.00    -0.273 OA
BRANCH  54  58
ATOM     58  CA  MET A   2      12.431   8.907  18.650  0.00  0.00    +0.149 C 
BRANCH  58  61
ATOM     59  C   LYS A   1      12.032   8.324  20.989  0.00  0.00    +0.238 C 
ATOM     60  O   LYS A   1      13.214   8.478  21.307  0.00  0.00    -0.274 OA
ATOM     61  N   MET A   2      11.580   8.484  19.752  0.00  0.00    -0.297 N 
ATOM     62  H   MET A   2      10.574   8.299  19.562  0.00  0.00    +0.150 HD
BRANCH  59  63
ATOM     63  CA  LYS A   1      10.994   7.882  22.010  0.00  0.00    +0.145 C 
BRANCH  63  64
ATOM     64  N   LYS A   1      11.585   6.890  22.893  0.00  0.00    -0.238 NA
ATOM     65  H   LYS A   1      12.605   6.926  23.091  0.00  0.00    +0.142 HD
ENDBRANCH  63  64
BRANCH  63  66
ATOM     66  CB  LYS A   1      10.443   9.095  22.769  0.00  0.00    +0.026 C 
BRANCH  66  67
ATOM     67  CG  LYS A   1       9.586   9.973  21.857  0.00  0.00    -0.000 C 
BRANCH  67  68
ATOM     68  CD  LYS A   1       8.960  11.182  22.519  0.00  0.00    -0.024 C 
BRANCH  68  69
ATOM     69  CE  LYS A   1       7.991  11.831  21.533  0.00  0.00    -0.086 C 
BRANCH  69  70
ATOM     70  NZ  LYS A   1       7.493  13.158  21.970  0.00  0.00    +0.380 N 
ATOM     71  HZ1 LYS A   1       6.992  13.058  22.876  0.00  0.00    -0.089 HD
ATOM     72  HZ2 LYS A   1       8.297  13.807  22.087  0.00  0.00    -0.089 HD
ATOM     73  HZ3 LYS A   1       6.842  13.536  21.252  0.00  0.00    -0.089 HD
ENDBRANCH  69  70
ENDBRANCH  68  69
ENDBRANCH  67  68
ENDBRANCH  66  67
ENDBRANCH  63  66
ENDBRANCH  59  63
ENDBRANCH  58  61
BRANCH  58  74
ATOM     74  CB  MET A   2      12.225   7.977  17.442  0.00  0.00    +0.041 C 
BRANCH  74  75
ATOM     75  CG  MET A   2      13.201   8.183  16.281  0.00  0.00    +0.060 C 
BRANCH  75  76
ATOM     76  SD  MET A   2      14.926   7.787  16.680  0.00  0.00    -0.139 S 
ATOM     77  CE  MET A   2      15.119   6.199  15.873  0.00  0.00    +0.069 C 
ENDBRANCH  75  76
ENDBRANCH  74  75
ENDBRANCH  58  74
ENDBRANCH  54  58
ENDBRANCH  53  55
BRANCH  53  78
ATOM     78  CB  ILE A   3      12.638  13.571  19.384  0.00  0.00    +0.027 C 
ATOM     79  CG2 ILE A   3      11.653  13.064  20.435  0.00  0.00    +0.002 C 
BRANCH  78  80
ATOM     80  CG1 ILE A   3      14.053  13.630  19.972  0.00  0.00    +0.002 C 
ATOM     81  CD1 ILE A   3      14.250  14.738  20.994  0.00  0.00    +0.000 C 
ENDBRANCH  78  80
ENDBRANCH  53  78
ENDBRANCH  49  53
ENDBRANCH  48  51
ENDBRANCH  44  48
ENDBRANCH  43  46
ENDBRANCH   1  43
TORSDOF 36
REMARK  Name = ../refined-set-2016/2i4d/2i4d_pocket.pdb
REMARK  229 active torsions:
REMARK  status: ('A' for Active; 'I' for Inactive)
REMARK    1  A    between atoms: _1  and  _3
REMARK    2  A    between atoms: _3  and  _4
REMARK    3  A    between atoms: _3  and  _6
REMARK    4  A    between atoms: _6  and  _7
REMARK    5  A    between atoms: _7  and  _8
REMARK    6  A    between atoms: _8  and  _9
REMARK    7  A    between atoms: _18  and  _20
REMARK    8  A    between atoms: _20  and  _21
REMARK    9  A    between atoms: _20  and  _23
REMARK   10  A    between atoms: _23  and  _24
REMARK   11  A    between atoms: _27  and  _29
REMARK   12  A    between atoms: _29  and  _30
REMARK   13  A    between atoms: _29  and  _32
REMARK   14  A    between atoms: _32  and  _33
REMARK   15  A    between atoms: _36  and  _38
REMARK   16  A    between atoms: _38  and  _39
REMARK   17  A    between atoms: _38  and  _41
REMARK   18  A    between atoms: _41  and  _42
REMARK   19  A    between atoms: _45  and  _47
REMARK   20  A    between atoms: _47  and  _48
REMARK   21  A    between atoms: _47  and  _50
REMARK   22  A    between atoms: _50  and  _51
REMARK   23  A    between atoms: _54  and  _56
REMARK   24  A    between atoms: _56  and  _57
REMARK   25  A    between atoms: _59  and  _61
REMARK   26  A    between atoms: _61  and  _62
REMARK   27  A    between atoms: _65  and  _67
REMARK   28  A    between atoms: _67  and  _68
REMARK   29  A    between atoms: _67  and  _70
REMARK   30  A    between atoms: _70  and  _71
REMARK   31  A    between atoms: _74  and  _76
REMARK   32  A    between atoms: _76  and  _77
REMARK   33  A    between atoms: _76  and  _79
REMARK   34  A    between atoms: _79  and  _80
REMARK   35  A    between atoms: _83  and  _85
REMARK   36  A    between atoms: _85  and  _86
REMARK   37  A    between atoms: _85  and  _88
REMARK   38  A    between atoms: _88  and  _89
REMARK   39  A    between atoms: _92  and  _94
REMARK   40  A    between atoms: _94  and  _95
REMARK   41  A    between atoms: _94  and  _97
REMARK   42  A    between atoms: _100  and  _102
REMARK   43  A    between atoms: _102  and  _103
REMARK   44  A    between atoms: _102  and  _105
REMARK   45  A    between atoms: _105  and  _106
REMARK   46  A    between atoms: _106  and  _107
REMARK   47  A    between atoms: _107  and  _108
REMARK   48  A    between atoms: _108  and  _109
REMARK   49  A    between atoms: _113  and  _115
REMARK   50  A    between atoms: _115  and  _116
REMARK   51  A    between atoms: _115  and  _118
REMARK   52  A    between atoms: _118  and  _119
REMARK   53  A    between atoms: _119  and  _120
REMARK   54  A    between atoms: _122  and  _124
REMARK   55  A    between atoms: _124  and  _125
REMARK   56  A    between atoms: _124  and  _127
REMARK   57  A    between atoms: _127  and  _128
REMARK   58  A    between atoms: _131  and  _133
REMARK   59  A    between atoms: _133  and  _134
REMARK   60  A    between atoms: _136  and  _138
REMARK   61  A    between atoms: _138  and  _139
REMARK   62  A    between atoms: _141  and  _143
REMARK   63  A    between atoms: _143  and  _144
REMARK   64  A    between atoms: _143  and  _146
REMARK   65  A    between atoms: _146  and  _147
REMARK   66  A    between atoms: _150  and  _152
REMARK   67  A    between atoms: _152  and  _153
REMARK   68  A    between atoms: _155  and  _157
REMARK   69  A    between atoms: _157  and  _158
REMARK   70  A    between atoms: _160  and  _162
REMARK   71  A    between atoms: _162  and  _163
REMARK   72  A    between atoms: _162  and  _165
REMARK   73  A    between atoms: _165  and  _166
REMARK   74  A    between atoms: _172  and  _174
REMARK   75  A    between atoms: _174  and  _175
REMARK   76  A    between atoms: _174  and  _177
REMARK   77  A    between atoms: _177  and  _178
REMARK   78  A    between atoms: _181  and  _183
REMARK   79  A    between atoms: _183  and  _184
REMARK   80  A    between atoms: _183  and  _186
REMARK   81  A    between atoms: _189  and  _191
REMARK   82  A    between atoms: _191  and  _192
REMARK   83  A    between atoms: _191  and  _194
REMARK   84  A    between atoms: _194  and  _195
REMARK   85  A    between atoms: _198  and  _200
REMARK   86  A    between atoms: _200  and  _201
REMARK   87  A    between atoms: _200  and  _203
REMARK   88  A    between atoms: _203  and  _204
REMARK   89  A    between atoms: _208  and  _209
REMARK   90  A    between atoms: _214  and  _216
REMARK   91  A    between atoms: _216  and  _217
REMARK   92  A    between atoms: _216  and  _219
REMARK   93  A    between atoms: _222  and  _224
REMARK   94  A    between atoms: _224  and  _225
REMARK   95  A    between atoms: _224  and  _227
REMARK   96  A    between atoms: _227  and  _228
REMARK   97  A    between atoms: _233  and  _235
REMARK   98  A    between atoms: _235  and  _236
REMARK   99  A    between atoms: _235  and  _238
REMARK  100  A    between atoms: _238  and  _239
REMARK  101  A    between atoms: _242  and  _244
REMARK  102  A    between atoms: _244  and  _245
REMARK  103  A    between atoms: _244  and  _247
REMARK  104  A    between atoms: _247  and  _248
REMARK  105  A    between atoms: _251  and  _253
REMARK  106  A    between atoms: _253  and  _254
REMARK  107  A    between atoms: _256  and  _258
REMARK  108  A    between atoms: _258  and  _259
REMARK  109  A    between atoms: _258  and  _261
REMARK  110  A    between atoms: _261  and  _262
REMARK  111  A    between atoms: _262  and  _263
REMARK  112  A    between atoms: _263  and  _264
REMARK  113  A    between atoms: _273  and  _275
REMARK  114  A    between atoms: _275  and  _276
REMARK  115  A    between atoms: _275  and  _278
REMARK  116  A    between atoms: _278  and  _279
REMARK  117  A    between atoms: _284  and  _286
REMARK  118  A    between atoms: _286  and  _287
REMARK  119  A    between atoms: _286  and  _289
REMARK  120  A    between atoms: _289  and  _290
REMARK  121  A    between atoms: _290  and  _291
REMARK  122  A    between atoms: _291  and  _292
REMARK  123  A    between atoms: _301  and  _303
REMARK  124  A    between atoms: _303  and  _304
REMARK  125  A    between atoms: _303  and  _306
REMARK  126  A    between atoms: _306  and  _307
REMARK  127  A    between atoms: _310  and  _312
REMARK  128  A    between atoms: _312  and  _313
REMARK  129  A    between atoms: _312  and  _315
REMARK  130  A    between atoms: _315  and  _316
REMARK  131  A    between atoms: _319  and  _321
REMARK  132  A    between atoms: _321  and  _322
REMARK  133  A    between atoms: _321  and  _324
REMARK  134  A    between atoms: _324  and  _325
REMARK  135  A    between atoms: _328  and  _330
REMARK  136  A    between atoms: _330  and  _331
REMARK  137  A    between atoms: _330  and  _333
REMARK  138  A    between atoms: _333  and  _334
REMARK  139  A    between atoms: _337  and  _339
REMARK  140  A    between atoms: _339  and  _340
REMARK  141  A    between atoms: _342  and  _344
REMARK  142  A    between atoms: _344  and  _345
REMARK  143  A    between atoms: _348  and  _350
REMARK  144  A    between atoms: _350  and  _351
REMARK  145  A    between atoms: _350  and  _353
REMARK  146  A    between atoms: _353  and  _354
REMARK  147  A    between atoms: _357  and  _359
REMARK  148  A    between atoms: _359  and  _360
REMARK  149  A    between atoms: _359  and  _362
REMARK  150  A    between atoms: _362  and  _363
REMARK  151  A    between atoms: _366  and  _368
REMARK  152  A    between atoms: _368  and  _369
REMARK  153  A    between atoms: _368  and  _371
REMARK  154  A    between atoms: _371  and  _372
REMARK  155  A    between atoms: _375  and  _377
REMARK  156  A    between atoms: _377  and  _378
REMARK  157  A    between atoms: _377  and  _380
REMARK  158  A    between atoms: _383  and  _385
REMARK  159  A    between atoms: _385  and  _386
REMARK  160  A    between atoms: _385  and  _388
REMARK  161  A    between atoms: _388  and  _389
REMARK  162  A    between atoms: _389  and  _390
REMARK  163  A    between atoms: _390  and  _391
REMARK  164  A    between atoms: _391  and  _392
REMARK  165  A    between atoms: _396  and  _398
REMARK  166  A    between atoms: _398  and  _399
REMARK  167  A    between atoms: _398  and  _401
REMARK  168  A    between atoms: _401  and  _402
REMARK  169  A    between atoms: _402  and  _403
REMARK  170  A    between atoms: _405  and  _407
REMARK  171  A    between atoms: _407  and  _408
REMARK  172  A    between atoms: _407  and  _410
REMARK  173  A    between atoms: _410  and  _411
REMARK  174  A    between atoms: _414  and  _416
REMARK  175  A    between atoms: _416  and  _417
REMARK  176  A    between atoms: _419  and  _421
REMARK  177  A    between atoms: _421  and  _422
REMARK  178  A    between atoms: _424  and  _426
REMARK  179  A    between atoms: _426  and  _427
REMARK  180  A    between atoms: _426  and  _429
REMARK  181  A    between atoms: _429  and  _430
REMARK  182  A    between atoms: _433  and  _435
REMARK  183  A    between atoms: _435  and  _436
REMARK  184  A    between atoms: _438  and  _440
REMARK  185  A    between atoms: _440  and  _441
REMARK  186  A    between atoms: _443  and  _445
REMARK  187  A    between atoms: _445  and  _446
REMARK  188  A    between atoms: _445  and  _448
REMARK  189  A    between atoms: _448  and  _449
REMARK  190  A    between atoms: _455  and  _457
REMARK  191  A    between atoms: _457  and  _458
REMARK  192  A    between atoms: _457  and  _460
REMARK  193  A    between atoms: _460  and  _461
REMARK  194  A    between atoms: _464  and  _466
REMARK  195  A    between atoms: _466  and  _467
REMARK  196  A    between atoms: _466  and  _469
REMARK  197  A    between atoms: _469  and  _470
REMARK  198  A    between atoms: _473  and  _475
REMARK  199  A    between atoms: _475  and  _476
REMARK  200  A    between atoms: _475  and  _478
REMARK  201  A    between atoms: _478  and  _479
REMARK  202  A    between atoms: _483  and  _484
REMARK  203  A    between atoms: _489  and  _491
REMARK  204  A    between atoms: _491  and  _492
REMARK  205  A    between atoms: _491  and  _494
REMARK  206  A    between atoms: _497  and  _499
REMARK  207  A    between atoms: _499  and  _500
REMARK  208  A    between atoms: _499  and  _502
REMARK  209  A    between atoms: _502  and  _503
REMARK  210  A    between atoms: _508  and  _510
REMARK  211  A    between atoms: _510  and  _511
REMARK  212  A    between atoms: _510  and  _513
REMARK  213  A    between atoms: _513  and  _514
REMARK  214  A    between atoms: _517  and  _519
REMARK  215  A    between atoms: _519  and  _520
REMARK  216  A    between atoms: _519  and  _522
REMARK  217  A    between atoms: _522  and  _523
REMARK  218  A    between atoms: _526  and  _528
REMARK  219  A    between atoms: _528  and  _529
REMARK  220  A    between atoms: _531  and  _533
REMARK  221  A    between atoms: _533  and  _534
REMARK  222  A    between atoms: _533  and  _536
REMARK  223  A    between atoms: _536  and  _537
REMARK  224  A    between atoms: _537  and  _538
REMARK  225  A    between atoms: _538  and  _539
REMARK  226  A    between atoms: _548  and  _550
REMARK  227  A    between atoms: _550  and  _551
REMARK  228  A    between atoms: _550  and  _553
REMARK  229  A    between atoms: _553  and  _554
REMARK                            x       y       z     vdW  Elec       q    Type
REMARK                         _______ _______ _______ _____ _____    ______ ____
ROOT
ATOM      1  CA  LEU A   1      12.920  13.440  27.577  0.00  0.00    +0.133 C 
ENDROOT
BRANCH   1   2
ATOM      2  N   LEU A   1      12.132  14.353  28.387  0.00  0.00    -0.239 NA
ATOM      3  H   LEU A   1      12.030  15.340  28.077  0.00  0.00    +0.142 HD
ENDBRANCH   1   2
BRANCH   1   4
ATOM      4  C   LEU A   1      14.384  13.687  27.922  0.00  0.00    +0.224 C 
ATOM      5  O   LEU A   1      14.788  14.826  28.117  0.00  0.00    -0.287 OA
ENDBRANCH   1   4
BRANCH   1   6
ATOM      6  CB  LEU A   1      12.679  13.705  26.088  0.00  0.00    +0.025 C 
BRANCH   6   7
ATOM      7  CG  LEU A   1      11.223  13.726  25.612  0.00  0.00    +0.002 C 
ATOM      8  CD2 LEU A   1      10.518  12.453  26.017  0.00  0.00    +0.000 C 
ATOM      9  CD1 LEU A   1      11.168  13.905  24.109  0.00  0.00    +0.000 C 
ENDBRANCH   6   7
ENDBRANCH   1   6
TORSDOF 4
REMARK  Name = ../refined-set-2016/2i4d/2i4d_pocket.pdb
REMARK  229 active torsions:
REMARK  status: ('A' for Active; 'I' for Inactive)
REMARK    1  A    between atoms: _1  and  _3
REMARK    2  A    between atoms: _3  and  _4
REMARK    3  A    between atoms: _3  and  _6
REMARK    4  A    between atoms: _6  and  _7
REMARK    5  A    between atoms: _7  and  _8
REMARK    6  A    between atoms: _8  and  _9
REMARK    7  A    between atoms: _18  and  _20
REMARK    8  A    between atoms: _20  and  _21
REMARK    9  A    between atoms: _20  and  _23
REMARK   10  A    between atoms: _23  and  _24
REMARK   11  A    between atoms: _27  and  _29
REMARK   12  A    between atoms: _29  and  _30
REMARK   13  A    between atoms: _29  and  _32
REMARK   14  A    between atoms: _32  and  _33
REMARK   15  A    between atoms: _36  and  _38
REMARK   16  A    between atoms: _38  and  _39
REMARK   17  A    between atoms: _38  and  _41
REMARK   18  A    between atoms: _41  and  _42
REMARK   19  A    between atoms: _45  and  _47
REMARK   20  A    between atoms: _47  and  _48
REMARK   21  A    between atoms: _47  and  _50
REMARK   22  A    between atoms: _50  and  _51
REMARK   23  A    between atoms: _54  and  _56
REMARK   24  A    between atoms: _56  and  _57
REMARK   25  A    between atoms: _59  and  _61
REMARK   26  A    between atoms: _61  and  _62
REMARK   27  A    between atoms: _65  and  _67
REMARK   28  A    between atoms: _67  and  _68
REMARK   29  A    between atoms: _67  and  _70
REMARK   30  A    between atoms: _70  and  _71
REMARK   31  A    between atoms: _74  and  _76
REMARK   32  A    between atoms: _76  and  _77
REMARK   33  A    between atoms: _76  and  _79
REMARK   34  A    between atoms: _79  and  _80
REMARK   35  A    between atoms: _83  and  _85
REMARK   36  A    between atoms: _85  and  _86
REMARK   37  A    between atoms: _85  and  _88
REMARK   38  A    between atoms: _88  and  _89
REMARK   39  A    between atoms: _92  and  _94
REMARK   40  A    between atoms: _94  and  _95
REMARK   41  A    between atoms: _94  and  _97
REMARK   42  A    between atoms: _100  and  _102
REMARK   43  A    between atoms: _102  and  _103
REMARK   44  A    between atoms: _102  and  _105
REMARK   45  A    between atoms: _105  and  _106
REMARK   46  A    between atoms: _106  and  _107
REMARK   47  A    between atoms: _107  and  _108
REMARK   48  A    between atoms: _108  and  _109
REMARK   49  A    between atoms: _113  and  _115
REMARK   50  A    between atoms: _115  and  _116
REMARK   51  A    between atoms: _115  and  _118
REMARK   52  A    between atoms: _118  and  _119
REMARK   53  A    between atoms: _119  and  _120
REMARK   54  A    between atoms: _122  and  _124
REMARK   55  A    between atoms: _124  and  _125
REMARK   56  A    between atoms: _124  and  _127
REMARK   57  A    between atoms: _127  and  _128
REMARK   58  A    between atoms: _131  and  _133
REMARK   59  A    between atoms: _133  and  _134
REMARK   60  A    between atoms: _136  and  _138
REMARK   61  A    between atoms: _138  and  _139
REMARK   62  A    between atoms: _141  and  _143
REMARK   63  A    between atoms: _143  and  _144
REMARK   64  A    between atoms: _143  and  _146
REMARK   65  A    between atoms: _146  and  _147
REMARK   66  A    between atoms: _150  and  _152
REMARK   67  A    between atoms: _152  and  _153
REMARK   68  A    between atoms: _155  and  _157
REMARK   69  A    between atoms: _157  and  _158
REMARK   70  A    between atoms: _160  and  _162
REMARK   71  A    between atoms: _162  and  _163
REMARK   72  A    between atoms: _162  and  _165
REMARK   73  A    between atoms: _165  and  _166
REMARK   74  A    between atoms: _172  and  _174
REMARK   75  A    between atoms: _174  and  _175
REMARK   76  A    between atoms: _174  and  _177
REMARK   77  A    between atoms: _177  and  _178
REMARK   78  A    between atoms: _181  and  _183
REMARK   79  A    between atoms: _183  and  _184
REMARK   80  A    between atoms: _183  and  _186
REMARK   81  A    between atoms: _189  and  _191
REMARK   82  A    between atoms: _191  and  _192
REMARK   83  A    between atoms: _191  and  _194
REMARK   84  A    between atoms: _194  and  _195
REMARK   85  A    between atoms: _198  and  _200
REMARK   86  A    between atoms: _200  and  _201
REMARK   87  A    between atoms: _200  and  _203
REMARK   88  A    between atoms: _203  and  _204
REMARK   89  A    between atoms: _208  and  _209
REMARK   90  A    between atoms: _214  and  _216
REMARK   91  A    between atoms: _216  and  _217
REMARK   92  A    between atoms: _216  and  _219
REMARK   93  A    between atoms: _222  and  _224
REMARK   94  A    between atoms: _224  and  _225
REMARK   95  A    between atoms: _224  and  _227
REMARK   96  A    between atoms: _227  and  _228
REMARK   97  A    between atoms: _233  and  _235
REMARK   98  A    between atoms: _235  and  _236
REMARK   99  A    between atoms: _235  and  _238
REMARK  100  A    between atoms: _238  and  _239
REMARK  101  A    between atoms: _242  and  _244
REMARK  102  A    between atoms: _244  and  _245
REMARK  103  A    between atoms: _244  and  _247
REMARK  104  A    between atoms: _247  and  _248
REMARK  105  A    between atoms: _251  and  _253
REMARK  106  A    between atoms: _253  and  _254
REMARK  107  A    between atoms: _256  and  _258
REMARK  108  A    between atoms: _258  and  _259
REMARK  109  A    between atoms: _258  and  _261
REMARK  110  A    between atoms: _261  and  _262
REMARK  111  A    between atoms: _262  and  _263
REMARK  112  A    between atoms: _263  and  _264
REMARK  113  A    between atoms: _273  and  _275
REMARK  114  A    between atoms: _275  and  _276
REMARK  115  A    between atoms: _275  and  _278
REMARK  116  A    between atoms: _278  and  _279
REMARK  117  A    between atoms: _284  and  _286
REMARK  118  A    between atoms: _286  and  _287
REMARK  119  A    between atoms: _286  and  _289
REMARK  120  A    between atoms: _289  and  _290
REMARK  121  A    between atoms: _290  and  _291
REMARK  122  A    between atoms: _291  and  _292
REMARK  123  A    between atoms: _301  and  _303
REMARK  124  A    between atoms: _303  and  _304
REMARK  125  A    between atoms: _303  and  _306
REMARK  126  A    between atoms: _306  and  _307
REMARK  127  A    between atoms: _310  and  _312
REMARK  128  A    between atoms: _312  and  _313
REMARK  129  A    between atoms: _312  and  _315
REMARK  130  A    between atoms: _315  and  _316
REMARK  131  A    between atoms: _319  and  _321
REMARK  132  A    between atoms: _321  and  _322
REMARK  133  A    between atoms: _321  and  _324
REMARK  134  A    between atoms: _324  and  _325
REMARK  135  A    between atoms: _328  and  _330
REMARK  136  A    between atoms: _330  and  _331
REMARK  137  A    between atoms: _330  and  _333
REMARK  138  A    between atoms: _333  and  _334
REMARK  139  A    between atoms: _337  and  _339
REMARK  140  A    between atoms: _339  and  _340
REMARK  141  A    between atoms: _342  and  _344
REMARK  142  A    between atoms: _344  and  _345
REMARK  143  A    between atoms: _348  and  _350
REMARK  144  A    between atoms: _350  and  _351
REMARK  145  A    between atoms: _350  and  _353
REMARK  146  A    between atoms: _353  and  _354
REMARK  147  A    between atoms: _357  and  _359
REMARK  148  A    between atoms: _359  and  _360
REMARK  149  A    between atoms: _359  and  _362
REMARK  150  A    between atoms: _362  and  _363
REMARK  151  A    between atoms: _366  and  _368
REMARK  152  A    between atoms: _368  and  _369
REMARK  153  A    between atoms: _368  and  _371
REMARK  154  A    between atoms: _371  and  _372
REMARK  155  A    between atoms: _375  and  _377
REMARK  156  A    between atoms: _377  and  _378
REMARK  157  A    between atoms: _377  and  _380
REMARK  158  A    between atoms: _383  and  _385
REMARK  159  A    between atoms: _385  and  _386
REMARK  160  A    between atoms: _385  and  _388
REMARK  161  A    between atoms: _388  and  _389
REMARK  162  A    between atoms: _389  and  _390
REMARK  163  A    between atoms: _390  and  _391
REMARK  164  A    between atoms: _391  and  _392
REMARK  165  A    between atoms: _396  and  _398
REMARK  166  A    between atoms: _398  and  _399
REMARK  167  A    between atoms: _398  and  _401
REMARK  168  A    between atoms: _401  and  _402
REMARK  169  A    between atoms: _402  and  _403
REMARK  170  A    between atoms: _405  and  _407
REMARK  171  A    between atoms: _407  and  _408
REMARK  172  A    between atoms: _407  and  _410
REMARK  173  A    between atoms: _410  and  _411
REMARK  174  A    between atoms: _414  and  _416
REMARK  175  A    between atoms: _416  and  _417
REMARK  176  A    between atoms: _419  and  _421
REMARK  177  A    between atoms: _421  and  _422
REMARK  178  A    between atoms: _424  and  _426
REMARK  179  A    between atoms: _426  and  _427
REMARK  180  A    between atoms: _426  and  _429
REMARK  181  A    between atoms: _429  and  _430
REMARK  182  A    between atoms: _433  and  _435
REMARK  183  A    between atoms: _435  and  _436
REMARK  184  A    between atoms: _438  and  _440
REMARK  185  A    between atoms: _440  and  _441
REMARK  186  A    between atoms: _443  and  _445
REMARK  187  A    between atoms: _445  and  _446
REMARK  188  A    between atoms: _445  and  _448
REMARK  189  A    between atoms: _448  and  _449
REMARK  190  A    between atoms: _455  and  _457
REMARK  191  A    between atoms: _457  and  _458
REMARK  192  A    between atoms: _457  and  _460
REMARK  193  A    between atoms: _460  and  _461
REMARK  194  A    between atoms: _464  and  _466
REMARK  195  A    between atoms: _466  and  _467
REMARK  196  A    between atoms: _466  and  _469
REMARK  197  A    between atoms: _469  and  _470
REMARK  198  A    between atoms: _473  and  _475
REMARK  199  A    between atoms: _475  and  _476
REMARK  200  A    between atoms: _475  and  _478
REMARK  201  A    between atoms: _478  and  _479
REMARK  202  A    between atoms: _483  and  _484
REMARK  203  A    between atoms: _489  and  _491
REMARK  204  A    between atoms: _491  and  _492
REMARK  205  A    between atoms: _491  and  _494
REMARK  206  A    between atoms: _497  and  _499
REMARK  207  A    between atoms: _499  and  _500
REMARK  208  A    between atoms: _499  and  _502
REMARK  209  A    between atoms: _502  and  _503
REMARK  210  A    between atoms: _508  and  _510
REMARK  211  A    between atoms: _510  and  _511
REMARK  212  A    between atoms: _510  and  _513
REMARK  213  A    between atoms: _513  and  _514
REMARK  214  A    between atoms: _517  and  _519
REMARK  215  A    between atoms: _519  and  _520
REMARK  216  A    between atoms: _519  and  _522
REMARK  217  A    between atoms: _522  and  _523
REMARK  218  A    between atoms: _526  and  _528
REMARK  219  A    between atoms: _528  and  _529
REMARK  220  A    between atoms: _531  and  _533
REMARK  221  A    between atoms: _533  and  _534
REMARK  222  A    between atoms: _533  and  _536
REMARK  223  A    between atoms: _536  and  _537
REMARK  224  A    between atoms: _537  and  _538
REMARK  225  A    between atoms: _538  and  _539
REMARK  226  A    between atoms: _548  and  _550
REMARK  227  A    between atoms: _550  and  _551
REMARK  228  A    between atoms: _550  and  _553
REMARK  229  A    between atoms: _553  and  _554
REMARK                            x       y       z     vdW  Elec       q    Type
REMARK                         _______ _______ _______ _____ _____    ______ ____
ROOT
ATOM      1  C   ILE A   5      14.075  22.563  26.792  0.00  0.00    +0.241 C 
ATOM      2  N   ILE A   6      13.333  23.633  27.065  0.00  0.00    -0.297 N 
ATOM      3  H   ILE A   6      13.731  24.576  26.880  0.00  0.00    +0.150 HD
ATOM      4  O   ILE A   5      13.724  21.407  27.060  0.00  0.00    -0.273 OA
ENDROOT
BRANCH   1   5
ATOM      5  CA  ILE A   5      15.458  22.856  26.198  0.00  0.00    +0.149 C 
BRANCH   5   8
ATOM      6  C   ASN A   4      17.561  22.620  27.385  0.00  0.00    +0.241 C 
ATOM      7  O   ASN A   4      17.755  23.836  27.354  0.00  0.00    -0.273 OA
ATOM      8  N   ILE A   5      16.497  22.050  26.829  0.00  0.00    -0.297 N 
ATOM      9  H   ILE A   5      16.404  21.014  26.844  0.00  0.00    +0.150 HD
BRANCH   6  10
ATOM     10  CA  ASN A   4      18.585  21.694  28.048  0.00  0.00    +0.158 C 
BRANCH  10  12
ATOM     11  C   VAL A   3      20.173  21.831  26.202  0.00  0.00    +0.241 C 
ATOM     12  N   ASN A   4      19.904  22.004  27.492  0.00  0.00    -0.297 N 
ATOM     13  H   ASN A   4      20.648  22.368  28.121  0.00  0.00    +0.150 HD
ATOM     14  O   VAL A   3      19.374  21.319  25.416  0.00  0.00    -0.273 OA
BRANCH  11  15
ATOM     15  CA  VAL A   3      21.568  22.230  25.728  0.00  0.00    +0.149 C 
BRANCH  15  18
ATOM     16  C   PRO A   2      23.117  21.390  24.021  0.00  0.00    +0.241 C 
ATOM     17  O   PRO A   2      24.092  21.894  24.580  0.00  0.00    -0.273 OA
ATOM     18  N   VAL A   3      21.878  21.495  24.501  0.00  0.00    -0.297 N 
ATOM     19  H   VAL A   3      21.101  21.037  23.983  0.00  0.00    +0.150 HD
BRANCH  16  23
ATOM     20  C   THR A   1      22.080  18.567  23.503  0.00  0.00    +0.244 C 
ATOM     21  O   THR A   1      22.817  18.453  24.488  0.00  0.00    -0.273 OA
ATOM     22  N   PRO A   2      22.268  19.525  22.581  0.00  0.00    -0.272 N 
ATOM     23  CA  PRO A   2      23.290  20.565  22.737  0.00  0.00    +0.152 C 
ATOM     24  CB  PRO A   2      23.114  21.410  21.471  0.00  0.00    +0.031 C 
ATOM     25  CG  PRO A   2      21.709  21.106  21.023  0.00  0.00    +0.024 C 
ATOM     26  CD  PRO A   2      21.607  19.643  21.274  0.00  0.00    +0.094 C 
BRANCH  20  27
ATOM     27  CA  THR A   1      20.977  17.542  23.231  0.00  0.00    +0.172 C 
BRANCH  27  28
ATOM     28  N   THR A   1      21.424  16.251  23.730  0.00  0.00    -0.236 NA
ATOM     29  H   THR A   1      21.677  16.149  24.734  0.00  0.00    +0.142 HD
ENDBRANCH  27  28
BRANCH  27  30
ATOM     30  CB  THR A   1      19.626  17.983  23.895  0.00  0.00    +0.135 C 
ATOM     31  CG2 THR A   1      19.754  18.052  25.412  0.00  0.00    +0.034 C 
BRANCH  30  32
ATOM     32  OG1 THR A   1      19.230  19.267  23.390  0.00  0.00    -0.383 OA
ATOM     33  HG1 THR A   1      19.931  19.934  23.601  0.00  0.00    +0.210 HD
ENDBRANCH  30  32
ENDBRANCH  27  30
ENDBRANCH  20  27
ENDBRANCH  16  23
ENDBRANCH  15  18
BRANCH  15  34
ATOM     34  CB  VAL A   3      21.623  23.768  25.497  0.00  0.00    +0.027 C 
ATOM     35  CG2 VAL A   3      21.508  24.519  26.817  0.00  0.00    +0.002 C 
ATOM     36  CG1 VAL A   3      20.539  24.200  24.524  0.00  0.00    +0.002 C 
ENDBRANCH  15  34
ENDBRANCH  11  15
ENDBRANCH  10  12
BRANCH  10  37
ATOM     37  CB  ASN A   4      18.553  21.971  29.556  0.00  0.00    +0.114 C 
BRANCH  37  38
ATOM     38  CG  ASN A   4      19.443  21.039  30.354  0.00  0.00    +0.222 C 
ATOM     39  ND2 ASN A   4      20.110  21.579  31.362  0.00  0.00    -0.329 N 
ATOM     40 HD21 ASN A   4      20.718  20.985  31.961  0.00  0.00    +0.145 HD
ATOM     41 HD22 ASN A   4      20.026  22.597  31.555  0.00  0.00    +0.145 HD
ATOM     42  OD1 ASN A   4      19.509  19.847  30.086  0.00  0.00    -0.275 OA
ENDBRANCH  37  38
ENDBRANCH  10  37
ENDBRANCH   6  10
ENDBRANCH   5   8
BRANCH   5  43
ATOM     43  CB  ILE A   5      15.419  22.682  24.649  0.00  0.00    +0.027 C 
ATOM     44  CG2 ILE A   5      16.732  23.169  24.020  0.00  0.00    +0.002 C 
BRANCH  43  45
ATOM     45  CG1 ILE A   5      15.130  21.228  24.268  0.00  0.00    +0.002 C 
ATOM     46  CD1 ILE A   5      15.155  20.977  22.764  0.00  0.00    +0.000 C 
ENDBRANCH  43  45
ENDBRANCH   5  43
ENDBRANCH   1   5
BRANCH   2  47
ATOM     47  CA  ILE A   6      11.991  23.539  27.611  0.00  0.00    +0.149 C 
BRANCH  47  48
ATOM     48  C   ILE A   6      11.040  23.734  26.425  0.00  0.00    +0.241 C 
ATOM     49  N   GLY A   7      10.374  22.654  26.020  0.00  0.00    -0.295 N 
ATOM     50  H   GLY A   7      10.516  21.752  26.519  0.00  0.00    +0.150 HD
ATOM     51  O   ILE A   6      10.967  24.823  25.855  0.00  0.00    -0.273 OA
BRANCH  49  52
ATOM     52  CA  GLY A   7       9.452  22.708  24.895  0.00  0.00    +0.176 C 
BRANCH  52  53
ATOM     53  C   GLY A   7       8.032  23.125  25.241  0.00  0.00    +0.243 C 
ATOM     54  O   GLY A   7       7.697  23.328  26.410  0.00  0.00    -0.273 OA
ATOM     55  N   ARG A   8       7.176  23.200  24.227  0.00  0.00    -0.297 N 
ATOM     56  H   ARG A   8       7.500  22.955  23.269  0.00  0.00    +0.150 HD
BRANCH  55  57
ATOM     57  CA  ARG A   8       5.794  23.617  24.426  0.00  0.00    +0.149 C 
BRANCH  57  58
ATOM     58  C   ARG A   8       4.976  22.823  25.446  0.00  0.00    +0.241 C 
ATOM     59  O   ARG A   8       4.070  23.375  26.070  0.00  0.00    -0.273 OA
ATOM     60  N   ASN A   9       5.316  21.552  25.659  0.00  0.00    -0.298 N 
ATOM     61  H   ASN A   9       6.112  21.133  25.138  0.00  0.00    +0.150 HD
BRANCH  60  62
ATOM     62  CA  ASN A   9       4.571  20.748  26.624  0.00  0.00    +0.146 C 
BRANCH  62  63
ATOM     63  C   ASN A   9       4.617  21.357  28.030  0.00  0.00    +0.227 C 
ATOM     64  O   ASN A   9       3.644  21.272  28.779  0.00  0.00    -0.286 OA
ENDBRANCH  62  63
BRANCH  62  65
ATOM     65  CB  ASN A   9       5.063  19.294  26.629  0.00  0.00    +0.112 C 
BRANCH  65  66
ATOM     66  CG  ASN A   9       6.425  19.130  27.274  0.00  0.00    +0.222 C 
ATOM     67  ND2 ASN A   9       6.496  18.275  28.288  0.00  0.00    -0.329 N 
ATOM     68 HD21 ASN A   9       7.406  18.105  28.762  0.00  0.00    +0.145 HD
ATOM     69 HD22 ASN A   9       5.642  17.775  28.608  0.00  0.00    +0.145 HD
ATOM     70  OD1 ASN A   9       7.403  19.746  26.857  0.00  0.00    -0.275 OA
ENDBRANCH  65  66
ENDBRANCH  62  65
ENDBRANCH  60  62
ENDBRANCH  57  58
BRANCH  57  71
ATOM     71  CB  ARG A   8       5.067  23.697  23.087  0.00  0.00    +0.033 C 
BRANCH  71  72
ATOM     72  CG  ARG A   8       5.639  24.784  22.154  0.00  0.00    +0.045 C 
BRANCH  72  73
ATOM     73  CD  ARG A   8       4.817  24.930  20.881  0.00  0.00    +0.174 C 
BRANCH  73  74
ATOM     74  NE  ARG A   8       4.764  23.689  20.110  0.00  0.00    -0.265 N 
ATOM     75  CZ  ARG A   8       3.768  22.806  20.157  0.00  0.00    +0.342 C 
ATOM     76  NH2 ARG A   8       2.719  23.019  20.935  0.00  0.00    -0.292 N 
ATOM     77 HH21 ARG A   8       2.668  23.881  21.515  0.00  0.00    +0.255 HD
ATOM     78 HH22 ARG A   8       1.945  22.325  20.966  0.00  0.00    +0.255 HD
ATOM     79  NH1 ARG A   8       3.842  21.685  19.450  0.00  0.00    -0.292 N 
ATOM     80 HH11 ARG A   8       3.065  20.995  19.486  0.00  0.00    +0.255 HD
ATOM     81 HH12 ARG A   8       4.677  21.497  18.860  0.00  0.00    +0.255 HD
ATOM     82  HE  ARG A   8       5.563  23.480  19.478  0.00  0.00    +0.259 HD
ENDBRANCH  73  74
ENDBRANCH  72  73
ENDBRANCH  71  72
ENDBRANCH  57  71
ENDBRANCH  55  57
ENDBRANCH  52  53
ENDBRANCH  49  52
ENDBRANCH  47  48
BRANCH  47  83
ATOM     83  CB  ILE A   6      11.744  24.637  28.678  0.00  0.00    +0.027 C 
ATOM     84  CG2 ILE A   6      10.362  24.499  29.277  0.00  0.00    +0.002 C 
BRANCH  83  85
ATOM     85  CG1 ILE A   6      12.807  24.564  29.780  0.00  0.00    +0.002 C 
ATOM     86  CD1 ILE A   6      12.961  23.190  30.420  0.00  0.00    +0.000 C 
ENDBRANCH  83  85
ENDBRANCH  47  83
ENDBRANCH   2  47
TORSDOF 32
REMARK  Name = ../refined-set-2016/2i4d/2i4d_pocket.pdb
REMARK  229 active torsions:
REMARK  status: ('A' for Active; 'I' for Inactive)
REMARK    1  A    between atoms: _1  and  _3
REMARK    2  A    between atoms: _3  and  _4
REMARK    3  A    between atoms: _3  and  _6
REMARK    4  A    between atoms: _6  and  _7
REMARK    5  A    between atoms: _7  and  _8
REMARK    6  A    between atoms: _8  and  _9
REMARK    7  A    between atoms: _18  and  _20
REMARK    8  A    between atoms: _20  and  _21
REMARK    9  A    between atoms: _20  and  _23
REMARK   10  A    between atoms: _23  and  _24
REMARK   11  A    between atoms: _27  and  _29
REMARK   12  A    between atoms: _29  and  _30
REMARK   13  A    between atoms: _29  and  _32
REMARK   14  A    between atoms: _32  and  _33
REMARK   15  A    between atoms: _36  and  _38
REMARK   16  A    between atoms: _38  and  _39
REMARK   17  A    between atoms: _38  and  _41
REMARK   18  A    between atoms: _41  and  _42
REMARK   19  A    between atoms: _45  and  _47
REMARK   20  A    between atoms: _47  and  _48
REMARK   21  A    between atoms: _47  and  _50
REMARK   22  A    between atoms: _50  and  _51
REMARK   23  A    between atoms: _54  and  _56
REMARK   24  A    between atoms: _56  and  _57
REMARK   25  A    between atoms: _59  and  _61
REMARK   26  A    between atoms: _61  and  _62
REMARK   27  A    between atoms: _65  and  _67
REMARK   28  A    between atoms: _67  and  _68
REMARK   29  A    between atoms: _67  and  _70
REMARK   30  A    between atoms: _70  and  _71
REMARK   31  A    between atoms: _74  and  _76
REMARK   32  A    between atoms: _76  and  _77
REMARK   33  A    between atoms: _76  and  _79
REMARK   34  A    between atoms: _79  and  _80
REMARK   35  A    between atoms: _83  and  _85
REMARK   36  A    between atoms: _85  and  _86
REMARK   37  A    between atoms: _85  and  _88
REMARK   38  A    between atoms: _88  and  _89
REMARK   39  A    between atoms: _92  and  _94
REMARK   40  A    between atoms: _94  and  _95
REMARK   41  A    between atoms: _94  and  _97
REMARK   42  A    between atoms: _100  and  _102
REMARK   43  A    between atoms: _102  and  _103
REMARK   44  A    between atoms: _102  and  _105
REMARK   45  A    between atoms: _105  and  _106
REMARK   46  A    between atoms: _106  and  _107
REMARK   47  A    between atoms: _107  and  _108
REMARK   48  A    between atoms: _108  and  _109
REMARK   49  A    between atoms: _113  and  _115
REMARK   50  A    between atoms: _115  and  _116
REMARK   51  A    between atoms: _115  and  _118
REMARK   52  A    between atoms: _118  and  _119
REMARK   53  A    between atoms: _119  and  _120
REMARK   54  A    between atoms: _122  and  _124
REMARK   55  A    between atoms: _124  and  _125
REMARK   56  A    between atoms: _124  and  _127
REMARK   57  A    between atoms: _127  and  _128
REMARK   58  A    between atoms: _131  and  _133
REMARK   59  A    between atoms: _133  and  _134
REMARK   60  A    between atoms: _136  and  _138
REMARK   61  A    between atoms: _138  and  _139
REMARK   62  A    between atoms: _141  and  _143
REMARK   63  A    between atoms: _143  and  _144
REMARK   64  A    between atoms: _143  and  _146
REMARK   65  A    between atoms: _146  and  _147
REMARK   66  A    between atoms: _150  and  _152
REMARK   67  A    between atoms: _152  and  _153
REMARK   68  A    between atoms: _155  and  _157
REMARK   69  A    between atoms: _157  and  _158
REMARK   70  A    between atoms: _160  and  _162
REMARK   71  A    between atoms: _162  and  _163
REMARK   72  A    between atoms: _162  and  _165
REMARK   73  A    between atoms: _165  and  _166
REMARK   74  A    between atoms: _172  and  _174
REMARK   75  A    between atoms: _174  and  _175
REMARK   76  A    between atoms: _174  and  _177
REMARK   77  A    between atoms: _177  and  _178
REMARK   78  A    between atoms: _181  and  _183
REMARK   79  A    between atoms: _183  and  _184
REMARK   80  A    between atoms: _183  and  _186
REMARK   81  A    between atoms: _189  and  _191
REMARK   82  A    between atoms: _191  and  _192
REMARK   83  A    between atoms: _191  and  _194
REMARK   84  A    between atoms: _194  and  _195
REMARK   85  A    between atoms: _198  and  _200
REMARK   86  A    between atoms: _200  and  _201
REMARK   87  A    between atoms: _200  and  _203
REMARK   88  A    between atoms: _203  and  _204
REMARK   89  A    between atoms: _208  and  _209
REMARK   90  A    between atoms: _214  and  _216
REMARK   91  A    between atoms: _216  and  _217
REMARK   92  A    between atoms: _216  and  _219
REMARK   93  A    between atoms: _222  and  _224
REMARK   94  A    between atoms: _224  and  _225
REMARK   95  A    between atoms: _224  and  _227
REMARK   96  A    between atoms: _227  and  _228
REMARK   97  A    between atoms: _233  and  _235
REMARK   98  A    between atoms: _235  and  _236
REMARK   99  A    between atoms: _235  and  _238
REMARK  100  A    between atoms: _238  and  _239
REMARK  101  A    between atoms: _242  and  _244
REMARK  102  A    between atoms: _244  and  _245
REMARK  103  A    between atoms: _244  and  _247
REMARK  104  A    between atoms: _247  and  _248
REMARK  105  A    between atoms: _251  and  _253
REMARK  106  A    between atoms: _253  and  _254
REMARK  107  A    between atoms: _256  and  _258
REMARK  108  A    between atoms: _258  and  _259
REMARK  109  A    between atoms: _258  and  _261
REMARK  110  A    between atoms: _261  and  _262
REMARK  111  A    between atoms: _262  and  _263
REMARK  112  A    between atoms: _263  and  _264
REMARK  113  A    between atoms: _273  and  _275
REMARK  114  A    between atoms: _275  and  _276
REMARK  115  A    between atoms: _275  and  _278
REMARK  116  A    between atoms: _278  and  _279
REMARK  117  A    between atoms: _284  and  _286
REMARK  118  A    between atoms: _286  and  _287
REMARK  119  A    between atoms: _286  and  _289
REMARK  120  A    between atoms: _289  and  _290
REMARK  121  A    between atoms: _290  and  _291
REMARK  122  A    between atoms: _291  and  _292
REMARK  123  A    between atoms: _301  and  _303
REMARK  124  A    between atoms: _303  and  _304
REMARK  125  A    between atoms: _303  and  _306
REMARK  126  A    between atoms: _306  and  _307
REMARK  127  A    between atoms: _310  and  _312
REMARK  128  A    between atoms: _312  and  _313
REMARK  129  A    between atoms: _312  and  _315
REMARK  130  A    between atoms: _315  and  _316
REMARK  131  A    between atoms: _319  and  _321
REMARK  132  A    between atoms: _321  and  _322
REMARK  133  A    between atoms: _321  and  _324
REMARK  134  A    between atoms: _324  and  _325
REMARK  135  A    between atoms: _328  and  _330
REMARK  136  A    between atoms: _330  and  _331
REMARK  137  A    between atoms: _330  and  _333
REMARK  138  A    between atoms: _333  and  _334
REMARK  139  A    between atoms: _337  and  _339
REMARK  140  A    between atoms: _339  and  _340
REMARK  141  A    between atoms: _342  and  _344
REMARK  142  A    between atoms: _344  and  _345
REMARK  143  A    between atoms: _348  and  _350
REMARK  144  A    between atoms: _350  and  _351
REMARK  145  A    between atoms: _350  and  _353
REMARK  146  A    between atoms: _353  and  _354
REMARK  147  A    between atoms: _357  and  _359
REMARK  148  A    between atoms: _359  and  _360
REMARK  149  A    between atoms: _359  and  _362
REMARK  150  A    between atoms: _362  and  _363
REMARK  151  A    between atoms: _366  and  _368
REMARK  152  A    between atoms: _368  and  _369
REMARK  153  A    between atoms: _368  and  _371
REMARK  154  A    between atoms: _371  and  _372
REMARK  155  A    between atoms: _375  and  _377
REMARK  156  A    between atoms: _377  and  _378
REMARK  157  A    between atoms: _377  and  _380
REMARK  158  A    between atoms: _383  and  _385
REMARK  159  A    between atoms: _385  and  _386
REMARK  160  A    between atoms: _385  and  _388
REMARK  161  A    between atoms: _388  and  _389
REMARK  162  A    between atoms: _389  and  _390
REMARK  163  A    between atoms: _390  and  _391
REMARK  164  A    between atoms: _391  and  _392
REMARK  165  A    between atoms: _396  and  _398
REMARK  166  A    between atoms: _398  and  _399
REMARK  167  A    between atoms: _398  and  _401
REMARK  168  A    between atoms: _401  and  _402
REMARK  169  A    between atoms: _402  and  _403
REMARK  170  A    between atoms: _405  and  _407
REMARK  171  A    between atoms: _407  and  _408
REMARK  172  A    between atoms: _407  and  _410
REMARK  173  A    between atoms: _410  and  _411
REMARK  174  A    between atoms: _414  and  _416
REMARK  175  A    between atoms: _416  and  _417
REMARK  176  A    between atoms: _419  and  _421
REMARK  177  A    between atoms: _421  and  _422
REMARK  178  A    between atoms: _424  and  _426
REMARK  179  A    between atoms: _426  and  _427
REMARK  180  A    between atoms: _426  and  _429
REMARK  181  A    between atoms: _429  and  _430
REMARK  182  A    between atoms: _433  and  _435
REMARK  183  A    between atoms: _435  and  _436
REMARK  184  A    between atoms: _438  and  _440
REMARK  185  A    between atoms: _440  and  _441
REMARK  186  A    between atoms: _443  and  _445
REMARK  187  A    between atoms: _445  and  _446
REMARK  188  A    between atoms: _445  and  _448
REMARK  189  A    between atoms: _448  and  _449
REMARK  190  A    between atoms: _455  and  _457
REMARK  191  A    between atoms: _457  and  _458
REMARK  192  A    between atoms: _457  and  _460
REMARK  193  A    between atoms: _460  and  _461
REMARK  194  A    between atoms: _464  and  _466
REMARK  195  A    between atoms: _466  and  _467
REMARK  196  A    between atoms: _466  and  _469
REMARK  197  A    between atoms: _469  and  _470
REMARK  198  A    between atoms: _473  and  _475
REMARK  199  A    between atoms: _475  and  _476
REMARK  200  A    between atoms: _475  and  _478
REMARK  201  A    between atoms: _478  and  _479
REMARK  202  A    between atoms: _483  and  _484
REMARK  203  A    between atoms: _489  and  _491
REMARK  204  A    between atoms: _491  and  _492
REMARK  205  A    between atoms: _491  and  _494
REMARK  206  A    between atoms: _497  and  _499
REMARK  207  A    between atoms: _499  and  _500
REMARK  208  A    between atoms: _499  and  _502
REMARK  209  A    between atoms: _502  and  _503
REMARK  210  A    between atoms: _508  and  _510
REMARK  211  A    between atoms: _510  and  _511
REMARK  212  A    between atoms: _510  and  _513
REMARK  213  A    between atoms: _513  and  _514
REMARK  214  A    between atoms: _517  and  _519
REMARK  215  A    between atoms: _519  and  _520
REMARK  216  A    between atoms: _519  and  _522
REMARK  217  A    between atoms: _522  and  _523
REMARK  218  A    between atoms: _526  and  _528
REMARK  219  A    between atoms: _528  and  _529
REMARK  220  A    between atoms: _531  and  _533
REMARK  221  A    between atoms: _533  and  _534
REMARK  222  A    between atoms: _533  and  _536
REMARK  223  A    between atoms: _536  and  _537
REMARK  224  A    between atoms: _537  and  _538
REMARK  225  A    between atoms: _538  and  _539
REMARK  226  A    between atoms: _548  and  _550
REMARK  227  A    between atoms: _550  and  _551
REMARK  228  A    between atoms: _550  and  _553
REMARK  229  A    between atoms: _553  and  _554
REMARK                            x       y       z     vdW  Elec       q    Type
REMARK                         _______ _______ _______ _____ _____    ______ ____
ROOT
ATOM      1  O   HOH     1      17.915  31.156  21.437  0.00  0.00    +0.000 OA
ENDROOT
TORSDOF 0
REMARK  Name = ../refined-set-2016/2i4d/2i4d_pocket.pdb
REMARK  229 active torsions:
REMARK  status: ('A' for Active; 'I' for Inactive)
REMARK    1  A    between atoms: _1  and  _3
REMARK    2  A    between atoms: _3  and  _4
REMARK    3  A    between atoms: _3  and  _6
REMARK    4  A    between atoms: _6  and  _7
REMARK    5  A    between atoms: _7  and  _8
REMARK    6  A    between atoms: _8  and  _9
REMARK    7  A    between atoms: _18  and  _20
REMARK    8  A    between atoms: _20  and  _21
REMARK    9  A    between atoms: _20  and  _23
REMARK   10  A    between atoms: _23  and  _24
REMARK   11  A    between atoms: _27  and  _29
REMARK   12  A    between atoms: _29  and  _30
REMARK   13  A    between atoms: _29  and  _32
REMARK   14  A    between atoms: _32  and  _33
REMARK   15  A    between atoms: _36  and  _38
REMARK   16  A    between atoms: _38  and  _39
REMARK   17  A    between atoms: _38  and  _41
REMARK   18  A    between atoms: _41  and  _42
REMARK   19  A    between atoms: _45  and  _47
REMARK   20  A    between atoms: _47  and  _48
REMARK   21  A    between atoms: _47  and  _50
REMARK   22  A    between atoms: _50  and  _51
REMARK   23  A    between atoms: _54  and  _56
REMARK   24  A    between atoms: _56  and  _57
REMARK   25  A    between atoms: _59  and  _61
REMARK   26  A    between atoms: _61  and  _62
REMARK   27  A    between atoms: _65  and  _67
REMARK   28  A    between atoms: _67  and  _68
REMARK   29  A    between atoms: _67  and  _70
REMARK   30  A    between atoms: _70  and  _71
REMARK   31  A    between atoms: _74  and  _76
REMARK   32  A    between atoms: _76  and  _77
REMARK   33  A    between atoms: _76  and  _79
REMARK   34  A    between atoms: _79  and  _80
REMARK   35  A    between atoms: _83  and  _85
REMARK   36  A    between atoms: _85  and  _86
REMARK   37  A    between atoms: _85  and  _88
REMARK   38  A    between atoms: _88  and  _89
REMARK   39  A    between atoms: _92  and  _94
REMARK   40  A    between atoms: _94  and  _95
REMARK   41  A    between atoms: _94  and  _97
REMARK   42  A    between atoms: _100  and  _102
REMARK   43  A    between atoms: _102  and  _103
REMARK   44  A    between atoms: _102  and  _105
REMARK   45  A    between atoms: _105  and  _106
REMARK   46  A    between atoms: _106  and  _107
REMARK   47  A    between atoms: _107  and  _108
REMARK   48  A    between atoms: _108  and  _109
REMARK   49  A    between atoms: _113  and  _115
REMARK   50  A    between atoms: _115  and  _116
REMARK   51  A    between atoms: _115  and  _118
REMARK   52  A    between atoms: _118  and  _119
REMARK   53  A    between atoms: _119  and  _120
REMARK   54  A    between atoms: _122  and  _124
REMARK   55  A    between atoms: _124  and  _125
REMARK   56  A    between atoms: _124  and  _127
REMARK   57  A    between atoms: _127  and  _128
REMARK   58  A    between atoms: _131  and  _133
REMARK   59  A    between atoms: _133  and  _134
REMARK   60  A    between atoms: _136  and  _138
REMARK   61  A    between atoms: _138  and  _139
REMARK   62  A    between atoms: _141  and  _143
REMARK   63  A    between atoms: _143  and  _144
REMARK   64  A    between atoms: _143  and  _146
REMARK   65  A    between atoms: _146  and  _147
REMARK   66  A    between atoms: _150  and  _152
REMARK   67  A    between atoms: _152  and  _153
REMARK   68  A    between atoms: _155  and  _157
REMARK   69  A    between atoms: _157  and  _158
REMARK   70  A    between atoms: _160  and  _162
REMARK   71  A    between atoms: _162  and  _163
REMARK   72  A    between atoms: _162  and  _165
REMARK   73  A    between atoms: _165  and  _166
REMARK   74  A    between atoms: _172  and  _174
REMARK   75  A    between atoms: _174  and  _175
REMARK   76  A    between atoms: _174  and  _177
REMARK   77  A    between atoms: _177  and  _178
REMARK   78  A    between atoms: _181  and  _183
REMARK   79  A    between atoms: _183  and  _184
REMARK   80  A    between atoms: _183  and  _186
REMARK   81  A    between atoms: _189  and  _191
REMARK   82  A    between atoms: _191  and  _192
REMARK   83  A    between atoms: _191  and  _194
REMARK   84  A    between atoms: _194  and  _195
REMARK   85  A    between atoms: _198  and  _200
REMARK   86  A    between atoms: _200  and  _201
REMARK   87  A    between atoms: _200  and  _203
REMARK   88  A    between atoms: _203  and  _204
REMARK   89  A    between atoms: _208  and  _209
REMARK   90  A    between atoms: _214  and  _216
REMARK   91  A    between atoms: _216  and  _217
REMARK   92  A    between atoms: _216  and  _219
REMARK   93  A    between atoms: _222  and  _224
REMARK   94  A    between atoms: _224  and  _225
REMARK   95  A    between atoms: _224  and  _227
REMARK   96  A    between atoms: _227  and  _228
REMARK   97  A    between atoms: _233  and  _235
REMARK   98  A    between atoms: _235  and  _236
REMARK   99  A    between atoms: _235  and  _238
REMARK  100  A    between atoms: _238  and  _239
REMARK  101  A    between atoms: _242  and  _244
REMARK  102  A    between atoms: _244  and  _245
REMARK  103  A    between atoms: _244  and  _247
REMARK  104  A    between atoms: _247  and  _248
REMARK  105  A    between atoms: _251  and  _253
REMARK  106  A    between atoms: _253  and  _254
REMARK  107  A    between atoms: _256  and  _258
REMARK  108  A    between atoms: _258  and  _259
REMARK  109  A    between atoms: _258  and  _261
REMARK  110  A    between atoms: _261  and  _262
REMARK  111  A    between atoms: _262  and  _263
REMARK  112  A    between atoms: _263  and  _264
REMARK  113  A    between atoms: _273  and  _275
REMARK  114  A    between atoms: _275  and  _276
REMARK  115  A    between atoms: _275  and  _278
REMARK  116  A    between atoms: _278  and  _279
REMARK  117  A    between atoms: _284  and  _286
REMARK  118  A    between atoms: _286  and  _287
REMARK  119  A    between atoms: _286  and  _289
REMARK  120  A    between atoms: _289  and  _290
REMARK  121  A    between atoms: _290  and  _291
REMARK  122  A    between atoms: _291  and  _292
REMARK  123  A    between atoms: _301  and  _303
REMARK  124  A    between atoms: _303  and  _304
REMARK  125  A    between atoms: _303  and  _306
REMARK  126  A    between atoms: _306  and  _307
REMARK  127  A    between atoms: _310  and  _312
REMARK  128  A    between atoms: _312  and  _313
REMARK  129  A    between atoms: _312  and  _315
REMARK  130  A    between atoms: _315  and  _316
REMARK  131  A    between atoms: _319  and  _321
REMARK  132  A    between atoms: _321  and  _322
REMARK  133  A    between atoms: _321  and  _324
REMARK  134  A    between atoms: _324  and  _325
REMARK  135  A    between atoms: _328  and  _330
REMARK  136  A    between atoms: _330  and  _331
REMARK  137  A    between atoms: _330  and  _333
REMARK  138  A    between atoms: _333  and  _334
REMARK  139  A    between atoms: _337  and  _339
REMARK  140  A    between atoms: _339  and  _340
REMARK  141  A    between atoms: _342  and  _344
REMARK  142  A    between atoms: _344  and  _345
REMARK  143  A    between atoms: _348  and  _350
REMARK  144  A    between atoms: _350  and  _351
REMARK  145  A    between atoms: _350  and  _353
REMARK  146  A    between atoms: _353  and  _354
REMARK  147  A    between atoms: _357  and  _359
REMARK  148  A    between atoms: _359  and  _360
REMARK  149  A    between atoms: _359  and  _362
REMARK  150  A    between atoms: _362  and  _363
REMARK  151  A    between atoms: _366  and  _368
REMARK  152  A    between atoms: _368  and  _369
REMARK  153  A    between atoms: _368  and  _371
REMARK  154  A    between atoms: _371  and  _372
REMARK  155  A    between atoms: _375  and  _377
REMARK  156  A    between atoms: _377  and  _378
REMARK  157  A    between atoms: _377  and  _380
REMARK  158  A    between atoms: _383  and  _385
REMARK  159  A    between atoms: _385  and  _386
REMARK  160  A    between atoms: _385  and  _388
REMARK  161  A    between atoms: _388  and  _389
REMARK  162  A    between atoms: _389  and  _390
REMARK  163  A    between atoms: _390  and  _391
REMARK  164  A    between atoms: _391  and  _392
REMARK  165  A    between atoms: _396  and  _398
REMARK  166  A    between atoms: _398  and  _399
REMARK  167  A    between atoms: _398  and  _401
REMARK  168  A    between atoms: _401  and  _402
REMARK  169  A    between atoms: _402  and  _403
REMARK  170  A    between atoms: _405  and  _407
REMARK  171  A    between atoms: _407  and  _408
REMARK  172  A    between atoms: _407  and  _410
REMARK  173  A    between atoms: _410  and  _411
REMARK  174  A    between atoms: _414  and  _416
REMARK  175  A    between atoms: _416  and  _417
REMARK  176  A    between atoms: _419  and  _421
REMARK  177  A    between atoms: _421  and  _422
REMARK  178  A    between atoms: _424  and  _426
REMARK  179  A    between atoms: _426  and  _427
REMARK  180  A    between atoms: _426  and  _429
REMARK  181  A    between atoms: _429  and  _430
REMARK  182  A    between atoms: _433  and  _435
REMARK  183  A    between atoms: _435  and  _436
REMARK  184  A    between atoms: _438  and  _440
REMARK  185  A    between atoms: _440  and  _441
REMARK  186  A    between atoms: _443  and  _445
REMARK  187  A    between atoms: _445  and  _446
REMARK  188  A    between atoms: _445  and  _448
REMARK  189  A    between atoms: _448  and  _449
REMARK  190  A    between atoms: _455  and  _457
REMARK  191  A    between atoms: _457  and  _458
REMARK  192  A    between atoms: _457  and  _460
REMARK  193  A    between atoms: _460  and  _461
REMARK  194  A    between atoms: _464  and  _466
REMARK  195  A    between atoms: _466  and  _467
REMARK  196  A    between atoms: _466  and  _469
REMARK  197  A    between atoms: _469  and  _470
REMARK  198  A    between atoms: _473  and  _475
REMARK  199  A    between atoms: _475  and  _476
REMARK  200  A    between atoms: _475  and  _478
REMARK  201  A    between atoms: _478  and  _479
REMARK  202  A    between atoms: _483  and  _484
REMARK  203  A    between atoms: _489  and  _491
REMARK  204  A    between atoms: _491  and  _492
REMARK  205  A    between atoms: _491  and  _494
REMARK  206  A    between atoms: _497  and  _499
REMARK  207  A    between atoms: _499  and  _500
REMARK  208  A    between atoms: _499  and  _502
REMARK  209  A    between atoms: _502  and  _503
REMARK  210  A    between atoms: _508  and  _510
REMARK  211  A    between atoms: _510  and  _511
REMARK  212  A    between atoms: _510  and  _513
REMARK  213  A    between atoms: _513  and  _514
REMARK  214  A    between atoms: _517  and  _519
REMARK  215  A    between atoms: _519  and  _520
REMARK  216  A    between atoms: _519  and  _522
REMARK  217  A    between atoms: _522  and  _523
REMARK  218  A    between atoms: _526  and  _528
REMARK  219  A    between atoms: _528  and  _529
REMARK  220  A    between atoms: _531  and  _533
REMARK  221  A    between atoms: _533  and  _534
REMARK  222  A    between atoms: _533  and  _536
REMARK  223  A    between atoms: _536  and  _537
REMARK  224  A    between atoms: _537  and  _538
REMARK  225  A    between atoms: _538  and  _539
REMARK  226  A    between atoms: _548  and  _550
REMARK  227  A    between atoms: _550  and  _551
REMARK  228  A    between atoms: _550  and  _553
REMARK  229  A    between atoms: _553  and  _554
REMARK                            x       y       z     vdW  Elec       q    Type
REMARK                         _______ _______ _______ _____ _____    ______ ____
ROOT
ATOM      1  O   HOH     1      20.025  28.215  18.230  0.00  0.00    +0.000 OA
ENDROOT
TORSDOF 0
REMARK  Name = ../refined-set-2016/2i4d/2i4d_pocket.pdb
REMARK  229 active torsions:
REMARK  status: ('A' for Active; 'I' for Inactive)
REMARK    1  A    between atoms: _1  and  _3
REMARK    2  A    between atoms: _3  and  _4
REMARK    3  A    between atoms: _3  and  _6
REMARK    4  A    between atoms: _6  and  _7
REMARK    5  A    between atoms: _7  and  _8
REMARK    6  A    between atoms: _8  and  _9
REMARK    7  A    between atoms: _18  and  _20
REMARK    8  A    between atoms: _20  and  _21
REMARK    9  A    between atoms: _20  and  _23
REMARK   10  A    between atoms: _23  and  _24
REMARK   11  A    between atoms: _27  and  _29
REMARK   12  A    between atoms: _29  and  _30
REMARK   13  A    between atoms: _29  and  _32
REMARK   14  A    between atoms: _32  and  _33
REMARK   15  A    between atoms: _36  and  _38
REMARK   16  A    between atoms: _38  and  _39
REMARK   17  A    between atoms: _38  and  _41
REMARK   18  A    between atoms: _41  and  _42
REMARK   19  A    between atoms: _45  and  _47
REMARK   20  A    between atoms: _47  and  _48
REMARK   21  A    between atoms: _47  and  _50
REMARK   22  A    between atoms: _50  and  _51
REMARK   23  A    between atoms: _54  and  _56
REMARK   24  A    between atoms: _56  and  _57
REMARK   25  A    between atoms: _59  and  _61
REMARK   26  A    between atoms: _61  and  _62
REMARK   27  A    between atoms: _65  and  _67
REMARK   28  A    between atoms: _67  and  _68
REMARK   29  A    between atoms: _67  and  _70
REMARK   30  A    between atoms: _70  and  _71
REMARK   31  A    between atoms: _74  and  _76
REMARK   32  A    between atoms: _76  and  _77
REMARK   33  A    between atoms: _76  and  _79
REMARK   34  A    between atoms: _79  and  _80
REMARK   35  A    between atoms: _83  and  _85
REMARK   36  A    between atoms: _85  and  _86
REMARK   37  A    between atoms: _85  and  _88
REMARK   38  A    between atoms: _88  and  _89
REMARK   39  A    between atoms: _92  and  _94
REMARK   40  A    between atoms: _94  and  _95
REMARK   41  A    between atoms: _94  and  _97
REMARK   42  A    between atoms: _100  and  _102
REMARK   43  A    between atoms: _102  and  _103
REMARK   44  A    between atoms: _102  and  _105
REMARK   45  A    between atoms: _105  and  _106
REMARK   46  A    between atoms: _106  and  _107
REMARK   47  A    between atoms: _107  and  _108
REMARK   48  A    between atoms: _108  and  _109
REMARK   49  A    between atoms: _113  and  _115
REMARK   50  A    between atoms: _115  and  _116
REMARK   51  A    between atoms: _115  and  _118
REMARK   52  A    between atoms: _118  and  _119
REMARK   53  A    between atoms: _119  and  _120
REMARK   54  A    between atoms: _122  and  _124
REMARK   55  A    between atoms: _124  and  _125
REMARK   56  A    between atoms: _124  and  _127
REMARK   57  A    between atoms: _127  and  _128
REMARK   58  A    between atoms: _131  and  _133
REMARK   59  A    between atoms: _133  and  _134
REMARK   60  A    between atoms: _136  and  _138
REMARK   61  A    between atoms: _138  and  _139
REMARK   62  A    between atoms: _141  and  _143
REMARK   63  A    between atoms: _143  and  _144
REMARK   64  A    between atoms: _143  and  _146
REMARK   65  A    between atoms: _146  and  _147
REMARK   66  A    between atoms: _150  and  _152
REMARK   67  A    between atoms: _152  and  _153
REMARK   68  A    between atoms: _155  and  _157
REMARK   69  A    between atoms: _157  and  _158
REMARK   70  A    between atoms: _160  and  _162
REMARK   71  A    between atoms: _162  and  _163
REMARK   72  A    between atoms: _162  and  _165
REMARK   73  A    between atoms: _165  and  _166
REMARK   74  A    between atoms: _172  and  _174
REMARK   75  A    between atoms: _174  and  _175
REMARK   76  A    between atoms: _174  and  _177
REMARK   77  A    between atoms: _177  and  _178
REMARK   78  A    between atoms: _181  and  _183
REMARK   79  A    between atoms: _183  and  _184
REMARK   80  A    between atoms: _183  and  _186
REMARK   81  A    between atoms: _189  and  _191
REMARK   82  A    between atoms: _191  and  _192
REMARK   83  A    between atoms: _191  and  _194
REMARK   84  A    between atoms: _194  and  _195
REMARK   85  A    between atoms: _198  and  _200
REMARK   86  A    between atoms: _200  and  _201
REMARK   87  A    between atoms: _200  and  _203
REMARK   88  A    between atoms: _203  and  _204
REMARK   89  A    between atoms: _208  and  _209
REMARK   90  A    between atoms: _214  and  _216
REMARK   91  A    between atoms: _216  and  _217
REMARK   92  A    between atoms: _216  and  _219
REMARK   93  A    between atoms: _222  and  _224
REMARK   94  A    between atoms: _224  and  _225
REMARK   95  A    between atoms: _224  and  _227
REMARK   96  A    between atoms: _227  and  _228
REMARK   97  A    between atoms: _233  and  _235
REMARK   98  A    between atoms: _235  and  _236
REMARK   99  A    between atoms: _235  and  _238
REMARK  100  A    between atoms: _238  and  _239
REMARK  101  A    between atoms: _242  and  _244
REMARK  102  A    between atoms: _244  and  _245
REMARK  103  A    between atoms: _244  and  _247
REMARK  104  A    between atoms: _247  and  _248
REMARK  105  A    between atoms: _251  and  _253
REMARK  106  A    between atoms: _253  and  _254
REMARK  107  A    between atoms: _256  and  _258
REMARK  108  A    between atoms: _258  and  _259
REMARK  109  A    between atoms: _258  and  _261
REMARK  110  A    between atoms: _261  and  _262
REMARK  111  A    between atoms: _262  and  _263
REMARK  112  A    between atoms: _263  and  _264
REMARK  113  A    between atoms: _273  and  _275
REMARK  114  A    between atoms: _275  and  _276
REMARK  115  A    between atoms: _275  and  _278
REMARK  116  A    between atoms: _278  and  _279
REMARK  117  A    between atoms: _284  and  _286
REMARK  118  A    between atoms: _286  and  _287
REMARK  119  A    between atoms: _286  and  _289
REMARK  120  A    between atoms: _289  and  _290
REMARK  121  A    between atoms: _290  and  _291
REMARK  122  A    between atoms: _291  and  _292
REMARK  123  A    between atoms: _301  and  _303
REMARK  124  A    between atoms: _303  and  _304
REMARK  125  A    between atoms: _303  and  _306
REMARK  126  A    between atoms: _306  and  _307
REMARK  127  A    between atoms: _310  and  _312
REMARK  128  A    between atoms: _312  and  _313
REMARK  129  A    between atoms: _312  and  _315
REMARK  130  A    between atoms: _315  and  _316
REMARK  131  A    between atoms: _319  and  _321
REMARK  132  A    between atoms: _321  and  _322
REMARK  133  A    between atoms: _321  and  _324
REMARK  134  A    between atoms: _324  and  _325
REMARK  135  A    between atoms: _328  and  _330
REMARK  136  A    between atoms: _330  and  _331
REMARK  137  A    between atoms: _330  and  _333
REMARK  138  A    between atoms: _333  and  _334
REMARK  139  A    between atoms: _337  and  _339
REMARK  140  A    between atoms: _339  and  _340
REMARK  141  A    between atoms: _342  and  _344
REMARK  142  A    between atoms: _344  and  _345
REMARK  143  A    between atoms: _348  and  _350
REMARK  144  A    between atoms: _350  and  _351
REMARK  145  A    between atoms: _350  and  _353
REMARK  146  A    between atoms: _353  and  _354
REMARK  147  A    between atoms: _357  and  _359
REMARK  148  A    between atoms: _359  and  _360
REMARK  149  A    between atoms: _359  and  _362
REMARK  150  A    between atoms: _362  and  _363
REMARK  151  A    between atoms: _366  and  _368
REMARK  152  A    between atoms: _368  and  _369
REMARK  153  A    between atoms: _368  and  _371
REMARK  154  A    between atoms: _371  and  _372
REMARK  155  A    between atoms: _375  and  _377
REMARK  156  A    between atoms: _377  and  _378
REMARK  157  A    between atoms: _377  and  _380
REMARK  158  A    between atoms: _383  and  _385
REMARK  159  A    between atoms: _385  and  _386
REMARK  160  A    between atoms: _385  and  _388
REMARK  161  A    between atoms: _388  and  _389
REMARK  162  A    between atoms: _389  and  _390
REMARK  163  A    between atoms: _390  and  _391
REMARK  164  A    between atoms: _391  and  _392
REMARK  165  A    between atoms: _396  and  _398
REMARK  166  A    between atoms: _398  and  _399
REMARK  167  A    between atoms: _398  and  _401
REMARK  168  A    between atoms: _401  and  _402
REMARK  169  A    between atoms: _402  and  _403
REMARK  170  A    between atoms: _405  and  _407
REMARK  171  A    between atoms: _407  and  _408
REMARK  172  A    between atoms: _407  and  _410
REMARK  173  A    between atoms: _410  and  _411
REMARK  174  A    between atoms: _414  and  _416
REMARK  175  A    between atoms: _416  and  _417
REMARK  176  A    between atoms: _419  and  _421
REMARK  177  A    between atoms: _421  and  _422
REMARK  178  A    between atoms: _424  and  _426
REMARK  179  A    between atoms: _426  and  _427
REMARK  180  A    between atoms: _426  and  _429
REMARK  181  A    between atoms: _429  and  _430
REMARK  182  A    between atoms: _433  and  _435
REMARK  183  A    between atoms: _435  and  _436
REMARK  184  A    between atoms: _438  and  _440
REMARK  185  A    between atoms: _440  and  _441
REMARK  186  A    between atoms: _443  and  _445
REMARK  187  A    between atoms: _445  and  _446
REMARK  188  A    between atoms: _445  and  _448
REMARK  189  A    between atoms: _448  and  _449
REMARK  190  A    between atoms: _455  and  _457
REMARK  191  A    between atoms: _457  and  _458
REMARK  192  A    between atoms: _457  and  _460
REMARK  193  A    between atoms: _460  and  _461
REMARK  194  A    between atoms: _464  and  _466
REMARK  195  A    between atoms: _466  and  _467
REMARK  196  A    between atoms: _466  and  _469
REMARK  197  A    between atoms: _469  and  _470
REMARK  198  A    between atoms: _473  and  _475
REMARK  199  A    between atoms: _475  and  _476
REMARK  200  A    between atoms: _475  and  _478
REMARK  201  A    between atoms: _478  and  _479
REMARK  202  A    between atoms: _483  and  _484
REMARK  203  A    between atoms: _489  and  _491
REMARK  204  A    between atoms: _491  and  _492
REMARK  205  A    between atoms: _491  and  _494
REMARK  206  A    between atoms: _497  and  _499
REMARK  207  A    between atoms: _499  and  _500
REMARK  208  A    between atoms: _499  and  _502
REMARK  209  A    between atoms: _502  and  _503
REMARK  210  A    between atoms: _508  and  _510
REMARK  211  A    between atoms: _510  and  _511
REMARK  212  A    between atoms: _510  and  _513
REMARK  213  A    between atoms: _513  and  _514
REMARK  214  A    between atoms: _517  and  _519
REMARK  215  A    between atoms: _519  and  _520
REMARK  216  A    between atoms: _519  and  _522
REMARK  217  A    between atoms: _522  and  _523
REMARK  218  A    between atoms: _526  and  _528
REMARK  219  A    between atoms: _528  and  _529
REMARK  220  A    between atoms: _531  and  _533
REMARK  221  A    between atoms: _533  and  _534
REMARK  222  A    between atoms: _533  and  _536
REMARK  223  A    between atoms: _536  and  _537
REMARK  224  A    between atoms: _537  and  _538
REMARK  225  A    between atoms: _538  and  _539
REMARK  226  A    between atoms: _548  and  _550
REMARK  227  A    between atoms: _550  and  _551
REMARK  228  A    between atoms: _550  and  _553
REMARK  229  A    between atoms: _553  and  _554
REMARK                            x       y       z     vdW  Elec       q    Type
REMARK                         _______ _______ _______ _____ _____    ______ ____
ROOT
ATOM      1  O   HOH     1      24.577  26.053  16.215  0.00  0.00    +0.000 OA
ENDROOT
TORSDOF 0
REMARK  Name = ../refined-set-2016/2i4d/2i4d_pocket.pdb
REMARK  229 active torsions:
REMARK  status: ('A' for Active; 'I' for Inactive)
REMARK    1  A    between atoms: _1  and  _3
REMARK    2  A    between atoms: _3  and  _4
REMARK    3  A    between atoms: _3  and  _6
REMARK    4  A    between atoms: _6  and  _7
REMARK    5  A    between atoms: _7  and  _8
REMARK    6  A    between atoms: _8  and  _9
REMARK    7  A    between atoms: _18  and  _20
REMARK    8  A    between atoms: _20  and  _21
REMARK    9  A    between atoms: _20  and  _23
REMARK   10  A    between atoms: _23  and  _24
REMARK   11  A    between atoms: _27  and  _29
REMARK   12  A    between atoms: _29  and  _30
REMARK   13  A    between atoms: _29  and  _32
REMARK   14  A    between atoms: _32  and  _33
REMARK   15  A    between atoms: _36  and  _38
REMARK   16  A    between atoms: _38  and  _39
REMARK   17  A    between atoms: _38  and  _41
REMARK   18  A    between atoms: _41  and  _42
REMARK   19  A    between atoms: _45  and  _47
REMARK   20  A    between atoms: _47  and  _48
REMARK   21  A    between atoms: _47  and  _50
REMARK   22  A    between atoms: _50  and  _51
REMARK   23  A    between atoms: _54  and  _56
REMARK   24  A    between atoms: _56  and  _57
REMARK   25  A    between atoms: _59  and  _61
REMARK   26  A    between atoms: _61  and  _62
REMARK   27  A    between atoms: _65  and  _67
REMARK   28  A    between atoms: _67  and  _68
REMARK   29  A    between atoms: _67  and  _70
REMARK   30  A    between atoms: _70  and  _71
REMARK   31  A    between atoms: _74  and  _76
REMARK   32  A    between atoms: _76  and  _77
REMARK   33  A    between atoms: _76  and  _79
REMARK   34  A    between atoms: _79  and  _80
REMARK   35  A    between atoms: _83  and  _85
REMARK   36  A    between atoms: _85  and  _86
REMARK   37  A    between atoms: _85  and  _88
REMARK   38  A    between atoms: _88  and  _89
REMARK   39  A    between atoms: _92  and  _94
REMARK   40  A    between atoms: _94  and  _95
REMARK   41  A    between atoms: _94  and  _97
REMARK   42  A    between atoms: _100  and  _102
REMARK   43  A    between atoms: _102  and  _103
REMARK   44  A    between atoms: _102  and  _105
REMARK   45  A    between atoms: _105  and  _106
REMARK   46  A    between atoms: _106  and  _107
REMARK   47  A    between atoms: _107  and  _108
REMARK   48  A    between atoms: _108  and  _109
REMARK   49  A    between atoms: _113  and  _115
REMARK   50  A    between atoms: _115  and  _116
REMARK   51  A    between atoms: _115  and  _118
REMARK   52  A    between atoms: _118  and  _119
REMARK   53  A    between atoms: _119  and  _120
REMARK   54  A    between atoms: _122  and  _124
REMARK   55  A    between atoms: _124  and  _125
REMARK   56  A    between atoms: _124  and  _127
REMARK   57  A    between atoms: _127  and  _128
REMARK   58  A    between atoms: _131  and  _133
REMARK   59  A    between atoms: _133  and  _134
REMARK   60  A    between atoms: _136  and  _138
REMARK   61  A    between atoms: _138  and  _139
REMARK   62  A    between atoms: _141  and  _143
REMARK   63  A    between atoms: _143  and  _144
REMARK   64  A    between atoms: _143  and  _146
REMARK   65  A    between atoms: _146  and  _147
REMARK   66  A    between atoms: _150  and  _152
REMARK   67  A    between atoms: _152  and  _153
REMARK   68  A    between atoms: _155  and  _157
REMARK   69  A    between atoms: _157  and  _158
REMARK   70  A    between atoms: _160  and  _162
REMARK   71  A    between atoms: _162  and  _163
REMARK   72  A    between atoms: _162  and  _165
REMARK   73  A    between atoms: _165  and  _166
REMARK   74  A    between atoms: _172  and  _174
REMARK   75  A    between atoms: _174  and  _175
REMARK   76  A    between atoms: _174  and  _177
REMARK   77  A    between atoms: _177  and  _178
REMARK   78  A    between atoms: _181  and  _183
REMARK   79  A    between atoms: _183  and  _184
REMARK   80  A    between atoms: _183  and  _186
REMARK   81  A    between atoms: _189  and  _191
REMARK   82  A    between atoms: _191  and  _192
REMARK   83  A    between atoms: _191  and  _194
REMARK   84  A    between atoms: _194  and  _195
REMARK   85  A    between atoms: _198  and  _200
REMARK   86  A    between atoms: _200  and  _201
REMARK   87  A    between atoms: _200  and  _203
REMARK   88  A    between atoms: _203  and  _204
REMARK   89  A    between atoms: _208  and  _209
REMARK   90  A    between atoms: _214  and  _216
REMARK   91  A    between atoms: _216  and  _217
REMARK   92  A    between atoms: _216  and  _219
REMARK   93  A    between atoms: _222  and  _224
REMARK   94  A    between atoms: _224  and  _225
REMARK   95  A    between atoms: _224  and  _227
REMARK   96  A    between atoms: _227  and  _228
REMARK   97  A    between atoms: _233  and  _235
REMARK   98  A    between atoms: _235  and  _236
REMARK   99  A    between atoms: _235  and  _238
REMARK  100  A    between atoms: _238  and  _239
REMARK  101  A    between atoms: _242  and  _244
REMARK  102  A    between atoms: _244  and  _245
REMARK  103  A    between atoms: _244  and  _247
REMARK  104  A    between atoms: _247  and  _248
REMARK  105  A    between atoms: _251  and  _253
REMARK  106  A    between atoms: _253  and  _254
REMARK  107  A    between atoms: _256  and  _258
REMARK  108  A    between atoms: _258  and  _259
REMARK  109  A    between atoms: _258  and  _261
REMARK  110  A    between atoms: _261  and  _262
REMARK  111  A    between atoms: _262  and  _263
REMARK  112  A    between atoms: _263  and  _264
REMARK  113  A    between atoms: _273  and  _275
REMARK  114  A    between atoms: _275  and  _276
REMARK  115  A    between atoms: _275  and  _278
REMARK  116  A    between atoms: _278  and  _279
REMARK  117  A    between atoms: _284  and  _286
REMARK  118  A    between atoms: _286  and  _287
REMARK  119  A    between atoms: _286  and  _289
REMARK  120  A    between atoms: _289  and  _290
REMARK  121  A    between atoms: _290  and  _291
REMARK  122  A    between atoms: _291  and  _292
REMARK  123  A    between atoms: _301  and  _303
REMARK  124  A    between atoms: _303  and  _304
REMARK  125  A    between atoms: _303  and  _306
REMARK  126  A    between atoms: _306  and  _307
REMARK  127  A    between atoms: _310  and  _312
REMARK  128  A    between atoms: _312  and  _313
REMARK  129  A    between atoms: _312  and  _315
REMARK  130  A    between atoms: _315  and  _316
REMARK  131  A    between atoms: _319  and  _321
REMARK  132  A    between atoms: _321  and  _322
REMARK  133  A    between atoms: _321  and  _324
REMARK  134  A    between atoms: _324  and  _325
REMARK  135  A    between atoms: _328  and  _330
REMARK  136  A    between atoms: _330  and  _331
REMARK  137  A    between atoms: _330  and  _333
REMARK  138  A    between atoms: _333  and  _334
REMARK  139  A    between atoms: _337  and  _339
REMARK  140  A    between atoms: _339  and  _340
REMARK  141  A    between atoms: _342  and  _344
REMARK  142  A    between atoms: _344  and  _345
REMARK  143  A    between atoms: _348  and  _350
REMARK  144  A    between atoms: _350  and  _351
REMARK  145  A    between atoms: _350  and  _353
REMARK  146  A    between atoms: _353  and  _354
REMARK  147  A    between atoms: _357  and  _359
REMARK  148  A    between atoms: _359  and  _360
REMARK  149  A    between atoms: _359  and  _362
REMARK  150  A    between atoms: _362  and  _363
REMARK  151  A    between atoms: _366  and  _368
REMARK  152  A    between atoms: _368  and  _369
REMARK  153  A    between atoms: _368  and  _371
REMARK  154  A    between atoms: _371  and  _372
REMARK  155  A    between atoms: _375  and  _377
REMARK  156  A    between atoms: _377  and  _378
REMARK  157  A    between atoms: _377  and  _380
REMARK  158  A    between atoms: _383  and  _385
REMARK  159  A    between atoms: _385  and  _386
REMARK  160  A    between atoms: _385  and  _388
REMARK  161  A    between atoms: _388  and  _389
REMARK  162  A    between atoms: _389  and  _390
REMARK  163  A    between atoms: _390  and  _391
REMARK  164  A    between atoms: _391  and  _392
REMARK  165  A    between atoms: _396  and  _398
REMARK  166  A    between atoms: _398  and  _399
REMARK  167  A    between atoms: _398  and  _401
REMARK  168  A    between atoms: _401  and  _402
REMARK  169  A    between atoms: _402  and  _403
REMARK  170  A    between atoms: _405  and  _407
REMARK  171  A    between atoms: _407  and  _408
REMARK  172  A    between atoms: _407  and  _410
REMARK  173  A    between atoms: _410  and  _411
REMARK  174  A    between atoms: _414  and  _416
REMARK  175  A    between atoms: _416  and  _417
REMARK  176  A    between atoms: _419  and  _421
REMARK  177  A    between atoms: _421  and  _422
REMARK  178  A    between atoms: _424  and  _426
REMARK  179  A    between atoms: _426  and  _427
REMARK  180  A    between atoms: _426  and  _429
REMARK  181  A    between atoms: _429  and  _430
REMARK  182  A    between atoms: _433  and  _435
REMARK  183  A    between atoms: _435  and  _436
REMARK  184  A    between atoms: _438  and  _440
REMARK  185  A    between atoms: _440  and  _441
REMARK  186  A    between atoms: _443  and  _445
REMARK  187  A    between atoms: _445  and  _446
REMARK  188  A    between atoms: _445  and  _448
REMARK  189  A    between atoms: _448  and  _449
REMARK  190  A    between atoms: _455  and  _457
REMARK  191  A    between atoms: _457  and  _458
REMARK  192  A    between atoms: _457  and  _460
REMARK  193  A    between atoms: _460  and  _461
REMARK  194  A    between atoms: _464  and  _466
REMARK  195  A    between atoms: _466  and  _467
REMARK  196  A    between atoms: _466  and  _469
REMARK  197  A    between atoms: _469  and  _470
REMARK  198  A    between atoms: _473  and  _475
REMARK  199  A    between atoms: _475  and  _476
REMARK  200  A    between atoms: _475  and  _478
REMARK  201  A    between atoms: _478  and  _479
REMARK  202  A    between atoms: _483  and  _484
REMARK  203  A    between atoms: _489  and  _491
REMARK  204  A    between atoms: _491  and  _492
REMARK  205  A    between atoms: _491  and  _494
REMARK  206  A    between atoms: _497  and  _499
REMARK  207  A    between atoms: _499  and  _500
REMARK  208  A    between atoms: _499  and  _502
REMARK  209  A    between atoms: _502  and  _503
REMARK  210  A    between atoms: _508  and  _510
REMARK  211  A    between atoms: _510  and  _511
REMARK  212  A    between atoms: _510  and  _513
REMARK  213  A    between atoms: _513  and  _514
REMARK  214  A    between atoms: _517  and  _519
REMARK  215  A    between atoms: _519  and  _520
REMARK  216  A    between atoms: _519  and  _522
REMARK  217  A    between atoms: _522  and  _523
REMARK  218  A    between atoms: _526  and  _528
REMARK  219  A    between atoms: _528  and  _529
REMARK  220  A    between atoms: _531  and  _533
REMARK  221  A    between atoms: _533  and  _534
REMARK  222  A    between atoms: _533  and  _536
REMARK  223  A    between atoms: _536  and  _537
REMARK  224  A    between atoms: _537  and  _538
REMARK  225  A    between atoms: _538  and  _539
REMARK  226  A    between atoms: _548  and  _550
REMARK  227  A    between atoms: _550  and  _551
REMARK  228  A    between atoms: _550  and  _553
REMARK  229  A    between atoms: _553  and  _554
REMARK                            x       y       z     vdW  Elec       q    Type
REMARK                         _______ _______ _______ _____ _____    ______ ____
ROOT
ATOM      1  O   HOH     1      20.499  35.877  17.369  0.00  0.00    +0.000 OA
ENDROOT
TORSDOF 0
REMARK  Name = ../refined-set-2016/2i4d/2i4d_pocket.pdb
REMARK  229 active torsions:
REMARK  status: ('A' for Active; 'I' for Inactive)
REMARK    1  A    between atoms: _1  and  _3
REMARK    2  A    between atoms: _3  and  _4
REMARK    3  A    between atoms: _3  and  _6
REMARK    4  A    between atoms: _6  and  _7
REMARK    5  A    between atoms: _7  and  _8
REMARK    6  A    between atoms: _8  and  _9
REMARK    7  A    between atoms: _18  and  _20
REMARK    8  A    between atoms: _20  and  _21
REMARK    9  A    between atoms: _20  and  _23
REMARK   10  A    between atoms: _23  and  _24
REMARK   11  A    between atoms: _27  and  _29
REMARK   12  A    between atoms: _29  and  _30
REMARK   13  A    between atoms: _29  and  _32
REMARK   14  A    between atoms: _32  and  _33
REMARK   15  A    between atoms: _36  and  _38
REMARK   16  A    between atoms: _38  and  _39
REMARK   17  A    between atoms: _38  and  _41
REMARK   18  A    between atoms: _41  and  _42
REMARK   19  A    between atoms: _45  and  _47
REMARK   20  A    between atoms: _47  and  _48
REMARK   21  A    between atoms: _47  and  _50
REMARK   22  A    between atoms: _50  and  _51
REMARK   23  A    between atoms: _54  and  _56
REMARK   24  A    between atoms: _56  and  _57
REMARK   25  A    between atoms: _59  and  _61
REMARK   26  A    between atoms: _61  and  _62
REMARK   27  A    between atoms: _65  and  _67
REMARK   28  A    between atoms: _67  and  _68
REMARK   29  A    between atoms: _67  and  _70
REMARK   30  A    between atoms: _70  and  _71
REMARK   31  A    between atoms: _74  and  _76
REMARK   32  A    between atoms: _76  and  _77
REMARK   33  A    between atoms: _76  and  _79
REMARK   34  A    between atoms: _79  and  _80
REMARK   35  A    between atoms: _83  and  _85
REMARK   36  A    between atoms: _85  and  _86
REMARK   37  A    between atoms: _85  and  _88
REMARK   38  A    between atoms: _88  and  _89
REMARK   39  A    between atoms: _92  and  _94
REMARK   40  A    between atoms: _94  and  _95
REMARK   41  A    between atoms: _94  and  _97
REMARK   42  A    between atoms: _100  and  _102
REMARK   43  A    between atoms: _102  and  _103
REMARK   44  A    between atoms: _102  and  _105
REMARK   45  A    between atoms: _105  and  _106
REMARK   46  A    between atoms: _106  and  _107
REMARK   47  A    between atoms: _107  and  _108
REMARK   48  A    between atoms: _108  and  _109
REMARK   49  A    between atoms: _113  and  _115
REMARK   50  A    between atoms: _115  and  _116
REMARK   51  A    between atoms: _115  and  _118
REMARK   52  A    between atoms: _118  and  _119
REMARK   53  A    between atoms: _119  and  _120
REMARK   54  A    between atoms: _122  and  _124
REMARK   55  A    between atoms: _124  and  _125
REMARK   56  A    between atoms: _124  and  _127
REMARK   57  A    between atoms: _127  and  _128
REMARK   58  A    between atoms: _131  and  _133
REMARK   59  A    between atoms: _133  and  _134
REMARK   60  A    between atoms: _136  and  _138
REMARK   61  A    between atoms: _138  and  _139
REMARK   62  A    between atoms: _141  and  _143
REMARK   63  A    between atoms: _143  and  _144
REMARK   64  A    between atoms: _143  and  _146
REMARK   65  A    between atoms: _146  and  _147
REMARK   66  A    between atoms: _150  and  _152
REMARK   67  A    between atoms: _152  and  _153
REMARK   68  A    between atoms: _155  and  _157
REMARK   69  A    between atoms: _157  and  _158
REMARK   70  A    between atoms: _160  and  _162
REMARK   71  A    between atoms: _162  and  _163
REMARK   72  A    between atoms: _162  and  _165
REMARK   73  A    between atoms: _165  and  _166
REMARK   74  A    between atoms: _172  and  _174
REMARK   75  A    between atoms: _174  and  _175
REMARK   76  A    between atoms: _174  and  _177
REMARK   77  A    between atoms: _177  and  _178
REMARK   78  A    between atoms: _181  and  _183
REMARK   79  A    between atoms: _183  and  _184
REMARK   80  A    between atoms: _183  and  _186
REMARK   81  A    between atoms: _189  and  _191
REMARK   82  A    between atoms: _191  and  _192
REMARK   83  A    between atoms: _191  and  _194
REMARK   84  A    between atoms: _194  and  _195
REMARK   85  A    between atoms: _198  and  _200
REMARK   86  A    between atoms: _200  and  _201
REMARK   87  A    between atoms: _200  and  _203
REMARK   88  A    between atoms: _203  and  _204
REMARK   89  A    between atoms: _208  and  _209
REMARK   90  A    between atoms: _214  and  _216
REMARK   91  A    between atoms: _216  and  _217
REMARK   92  A    between atoms: _216  and  _219
REMARK   93  A    between atoms: _222  and  _224
REMARK   94  A    between atoms: _224  and  _225
REMARK   95  A    between atoms: _224  and  _227
REMARK   96  A    between atoms: _227  and  _228
REMARK   97  A    between atoms: _233  and  _235
REMARK   98  A    between atoms: _235  and  _236
REMARK   99  A    between atoms: _235  and  _238
REMARK  100  A    between atoms: _238  and  _239
REMARK  101  A    between atoms: _242  and  _244
REMARK  102  A    between atoms: _244  and  _245
REMARK  103  A    between atoms: _244  and  _247
REMARK  104  A    between atoms: _247  and  _248
REMARK  105  A    between atoms: _251  and  _253
REMARK  106  A    between atoms: _253  and  _254
REMARK  107  A    between atoms: _256  and  _258
REMARK  108  A    between atoms: _258  and  _259
REMARK  109  A    between atoms: _258  and  _261
REMARK  110  A    between atoms: _261  and  _262
REMARK  111  A    between atoms: _262  and  _263
REMARK  112  A    between atoms: _263  and  _264
REMARK  113  A    between atoms: _273  and  _275
REMARK  114  A    between atoms: _275  and  _276
REMARK  115  A    between atoms: _275  and  _278
REMARK  116  A    between atoms: _278  and  _279
REMARK  117  A    between atoms: _284  and  _286
REMARK  118  A    between atoms: _286  and  _287
REMARK  119  A    between atoms: _286  and  _289
REMARK  120  A    between atoms: _289  and  _290
REMARK  121  A    between atoms: _290  and  _291
REMARK  122  A    between atoms: _291  and  _292
REMARK  123  A    between atoms: _301  and  _303
REMARK  124  A    between atoms: _303  and  _304
REMARK  125  A    between atoms: _303  and  _306
REMARK  126  A    between atoms: _306  and  _307
REMARK  127  A    between atoms: _310  and  _312
REMARK  128  A    between atoms: _312  and  _313
REMARK  129  A    between atoms: _312  and  _315
REMARK  130  A    between atoms: _315  and  _316
REMARK  131  A    between atoms: _319  and  _321
REMARK  132  A    between atoms: _321  and  _322
REMARK  133  A    between atoms: _321  and  _324
REMARK  134  A    between atoms: _324  and  _325
REMARK  135  A    between atoms: _328  and  _330
REMARK  136  A    between atoms: _330  and  _331
REMARK  137  A    between atoms: _330  and  _333
REMARK  138  A    between atoms: _333  and  _334
REMARK  139  A    between atoms: _337  and  _339
REMARK  140  A    between atoms: _339  and  _340
REMARK  141  A    between atoms: _342  and  _344
REMARK  142  A    between atoms: _344  and  _345
REMARK  143  A    between atoms: _348  and  _350
REMARK  144  A    between atoms: _350  and  _351
REMARK  145  A    between atoms: _350  and  _353
REMARK  146  A    between atoms: _353  and  _354
REMARK  147  A    between atoms: _357  and  _359
REMARK  148  A    between atoms: _359  and  _360
REMARK  149  A    between atoms: _359  and  _362
REMARK  150  A    between atoms: _362  and  _363
REMARK  151  A    between atoms: _366  and  _368
REMARK  152  A    between atoms: _368  and  _369
REMARK  153  A    between atoms: _368  and  _371
REMARK  154  A    between atoms: _371  and  _372
REMARK  155  A    between atoms: _375  and  _377
REMARK  156  A    between atoms: _377  and  _378
REMARK  157  A    between atoms: _377  and  _380
REMARK  158  A    between atoms: _383  and  _385
REMARK  159  A    between atoms: _385  and  _386
REMARK  160  A    between atoms: _385  and  _388
REMARK  161  A    between atoms: _388  and  _389
REMARK  162  A    between atoms: _389  and  _390
REMARK  163  A    between atoms: _390  and  _391
REMARK  164  A    between atoms: _391  and  _392
REMARK  165  A    between atoms: _396  and  _398
REMARK  166  A    between atoms: _398  and  _399
REMARK  167  A    between atoms: _398  and  _401
REMARK  168  A    between atoms: _401  and  _402
REMARK  169  A    between atoms: _402  and  _403
REMARK  170  A    between atoms: _405  and  _407
REMARK  171  A    between atoms: _407  and  _408
REMARK  172  A    between atoms: _407  and  _410
REMARK  173  A    between atoms: _410  and  _411
REMARK  174  A    between atoms: _414  and  _416
REMARK  175  A    between atoms: _416  and  _417
REMARK  176  A    between atoms: _419  and  _421
REMARK  177  A    between atoms: _421  and  _422
REMARK  178  A    between atoms: _424  and  _426
REMARK  179  A    between atoms: _426  and  _427
REMARK  180  A    between atoms: _426  and  _429
REMARK  181  A    between atoms: _429  and  _430
REMARK  182  A    between atoms: _433  and  _435
REMARK  183  A    between atoms: _435  and  _436
REMARK  184  A    between atoms: _438  and  _440
REMARK  185  A    between atoms: _440  and  _441
REMARK  186  A    between atoms: _443  and  _445
REMARK  187  A    between atoms: _445  and  _446
REMARK  188  A    between atoms: _445  and  _448
REMARK  189  A    between atoms: _448  and  _449
REMARK  190  A    between atoms: _455  and  _457
REMARK  191  A    between atoms: _457  and  _458
REMARK  192  A    between atoms: _457  and  _460
REMARK  193  A    between atoms: _460  and  _461
REMARK  194  A    between atoms: _464  and  _466
REMARK  195  A    between atoms: _466  and  _467
REMARK  196  A    between atoms: _466  and  _469
REMARK  197  A    between atoms: _469  and  _470
REMARK  198  A    between atoms: _473  and  _475
REMARK  199  A    between atoms: _475  and  _476
REMARK  200  A    between atoms: _475  and  _478
REMARK  201  A    between atoms: _478  and  _479
REMARK  202  A    between atoms: _483  and  _484
REMARK  203  A    between atoms: _489  and  _491
REMARK  204  A    between atoms: _491  and  _492
REMARK  205  A    between atoms: _491  and  _494
REMARK  206  A    between atoms: _497  and  _499
REMARK  207  A    between atoms: _499  and  _500
REMARK  208  A    between atoms: _499  and  _502
REMARK  209  A    between atoms: _502  and  _503
REMARK  210  A    between atoms: _508  and  _510
REMARK  211  A    between atoms: _510  and  _511
REMARK  212  A    between atoms: _510  and  _513
REMARK  213  A    between atoms: _513  and  _514
REMARK  214  A    between atoms: _517  and  _519
REMARK  215  A    between atoms: _519  and  _520
REMARK  216  A    between atoms: _519  and  _522
REMARK  217  A    between atoms: _522  and  _523
REMARK  218  A    between atoms: _526  and  _528
REMARK  219  A    between atoms: _528  and  _529
REMARK  220  A    between atoms: _531  and  _533
REMARK  221  A    between atoms: _533  and  _534
REMARK  222  A    between atoms: _533  and  _536
REMARK  223  A    between atoms: _536  and  _537
REMARK  224  A    between atoms: _537  and  _538
REMARK  225  A    between atoms: _538  and  _539
REMARK  226  A    between atoms: _548  and  _550
REMARK  227  A    between atoms: _550  and  _551
REMARK  228  A    between atoms: _550  and  _553
REMARK  229  A    between atoms: _553  and  _554
REMARK                            x       y       z     vdW  Elec       q    Type
REMARK                         _______ _______ _______ _____ _____    ______ ____
ROOT
ATOM      1  O   HOH     1      19.595  28.942  21.104  0.00  0.00    +0.000 OA
ENDROOT
TORSDOF 0
REMARK  Name = ../refined-set-2016/2i4d/2i4d_pocket.pdb
REMARK  229 active torsions:
REMARK  status: ('A' for Active; 'I' for Inactive)
REMARK    1  A    between atoms: _1  and  _3
REMARK    2  A    between atoms: _3  and  _4
REMARK    3  A    between atoms: _3  and  _6
REMARK    4  A    between atoms: _6  and  _7
REMARK    5  A    between atoms: _7  and  _8
REMARK    6  A    between atoms: _8  and  _9
REMARK    7  A    between atoms: _18  and  _20
REMARK    8  A    between atoms: _20  and  _21
REMARK    9  A    between atoms: _20  and  _23
REMARK   10  A    between atoms: _23  and  _24
REMARK   11  A    between atoms: _27  and  _29
REMARK   12  A    between atoms: _29  and  _30
REMARK   13  A    between atoms: _29  and  _32
REMARK   14  A    between atoms: _32  and  _33
REMARK   15  A    between atoms: _36  and  _38
REMARK   16  A    between atoms: _38  and  _39
REMARK   17  A    between atoms: _38  and  _41
REMARK   18  A    between atoms: _41  and  _42
REMARK   19  A    between atoms: _45  and  _47
REMARK   20  A    between atoms: _47  and  _48
REMARK   21  A    between atoms: _47  and  _50
REMARK   22  A    between atoms: _50  and  _51
REMARK   23  A    between atoms: _54  and  _56
REMARK   24  A    between atoms: _56  and  _57
REMARK   25  A    between atoms: _59  and  _61
REMARK   26  A    between atoms: _61  and  _62
REMARK   27  A    between atoms: _65  and  _67
REMARK   28  A    between atoms: _67  and  _68
REMARK   29  A    between atoms: _67  and  _70
REMARK   30  A    between atoms: _70  and  _71
REMARK   31  A    between atoms: _74  and  _76
REMARK   32  A    between atoms: _76  and  _77
REMARK   33  A    between atoms: _76  and  _79
REMARK   34  A    between atoms: _79  and  _80
REMARK   35  A    between atoms: _83  and  _85
REMARK   36  A    between atoms: _85  and  _86
REMARK   37  A    between atoms: _85  and  _88
REMARK   38  A    between atoms: _88  and  _89
REMARK   39  A    between atoms: _92  and  _94
REMARK   40  A    between atoms: _94  and  _95
REMARK   41  A    between atoms: _94  and  _97
REMARK   42  A    between atoms: _100  and  _102
REMARK   43  A    between atoms: _102  and  _103
REMARK   44  A    between atoms: _102  and  _105
REMARK   45  A    between atoms: _105  and  _106
REMARK   46  A    between atoms: _106  and  _107
REMARK   47  A    between atoms: _107  and  _108
REMARK   48  A    between atoms: _108  and  _109
REMARK   49  A    between atoms: _113  and  _115
REMARK   50  A    between atoms: _115  and  _116
REMARK   51  A    between atoms: _115  and  _118
REMARK   52  A    between atoms: _118  and  _119
REMARK   53  A    between atoms: _119  and  _120
REMARK   54  A    between atoms: _122  and  _124
REMARK   55  A    between atoms: _124  and  _125
REMARK   56  A    between atoms: _124  and  _127
REMARK   57  A    between atoms: _127  and  _128
REMARK   58  A    between atoms: _131  and  _133
REMARK   59  A    between atoms: _133  and  _134
REMARK   60  A    between atoms: _136  and  _138
REMARK   61  A    between atoms: _138  and  _139
REMARK   62  A    between atoms: _141  and  _143
REMARK   63  A    between atoms: _143  and  _144
REMARK   64  A    between atoms: _143  and  _146
REMARK   65  A    between atoms: _146  and  _147
REMARK   66  A    between atoms: _150  and  _152
REMARK   67  A    between atoms: _152  and  _153
REMARK   68  A    between atoms: _155  and  _157
REMARK   69  A    between atoms: _157  and  _158
REMARK   70  A    between atoms: _160  and  _162
REMARK   71  A    between atoms: _162  and  _163
REMARK   72  A    between atoms: _162  and  _165
REMARK   73  A    between atoms: _165  and  _166
REMARK   74  A    between atoms: _172  and  _174
REMARK   75  A    between atoms: _174  and  _175
REMARK   76  A    between atoms: _174  and  _177
REMARK   77  A    between atoms: _177  and  _178
REMARK   78  A    between atoms: _181  and  _183
REMARK   79  A    between atoms: _183  and  _184
REMARK   80  A    between atoms: _183  and  _186
REMARK   81  A    between atoms: _189  and  _191
REMARK   82  A    between atoms: _191  and  _192
REMARK   83  A    between atoms: _191  and  _194
REMARK   84  A    between atoms: _194  and  _195
REMARK   85  A    between atoms: _198  and  _200
REMARK   86  A    between atoms: _200  and  _201
REMARK   87  A    between atoms: _200  and  _203
REMARK   88  A    between atoms: _203  and  _204
REMARK   89  A    between atoms: _208  and  _209
REMARK   90  A    between atoms: _214  and  _216
REMARK   91  A    between atoms: _216  and  _217
REMARK   92  A    between atoms: _216  and  _219
REMARK   93  A    between atoms: _222  and  _224
REMARK   94  A    between atoms: _224  and  _225
REMARK   95  A    between atoms: _224  and  _227
REMARK   96  A    between atoms: _227  and  _228
REMARK   97  A    between atoms: _233  and  _235
REMARK   98  A    between atoms: _235  and  _236
REMARK   99  A    between atoms: _235  and  _238
REMARK  100  A    between atoms: _238  and  _239
REMARK  101  A    between atoms: _242  and  _244
REMARK  102  A    between atoms: _244  and  _245
REMARK  103  A    between atoms: _244  and  _247
REMARK  104  A    between atoms: _247  and  _248
REMARK  105  A    between atoms: _251  and  _253
REMARK  106  A    between atoms: _253  and  _254
REMARK  107  A    between atoms: _256  and  _258
REMARK  108  A    between atoms: _258  and  _259
REMARK  109  A    between atoms: _258  and  _261
REMARK  110  A    between atoms: _261  and  _262
REMARK  111  A    between atoms: _262  and  _263
REMARK  112  A    between atoms: _263  and  _264
REMARK  113  A    between atoms: _273  and  _275
REMARK  114  A    between atoms: _275  and  _276
REMARK  115  A    between atoms: _275  and  _278
REMARK  116  A    between atoms: _278  and  _279
REMARK  117  A    between atoms: _284  and  _286
REMARK  118  A    between atoms: _286  and  _287
REMARK  119  A    between atoms: _286  and  _289
REMARK  120  A    between atoms: _289  and  _290
REMARK  121  A    between atoms: _290  and  _291
REMARK  122  A    between atoms: _291  and  _292
REMARK  123  A    between atoms: _301  and  _303
REMARK  124  A    between atoms: _303  and  _304
REMARK  125  A    between atoms: _303  and  _306
REMARK  126  A    between atoms: _306  and  _307
REMARK  127  A    between atoms: _310  and  _312
REMARK  128  A    between atoms: _312  and  _313
REMARK  129  A    between atoms: _312  and  _315
REMARK  130  A    between atoms: _315  and  _316
REMARK  131  A    between atoms: _319  and  _321
REMARK  132  A    between atoms: _321  and  _322
REMARK  133  A    between atoms: _321  and  _324
REMARK  134  A    between atoms: _324  and  _325
REMARK  135  A    between atoms: _328  and  _330
REMARK  136  A    between atoms: _330  and  _331
REMARK  137  A    between atoms: _330  and  _333
REMARK  138  A    between atoms: _333  and  _334
REMARK  139  A    between atoms: _337  and  _339
REMARK  140  A    between atoms: _339  and  _340
REMARK  141  A    between atoms: _342  and  _344
REMARK  142  A    between atoms: _344  and  _345
REMARK  143  A    between atoms: _348  and  _350
REMARK  144  A    between atoms: _350  and  _351
REMARK  145  A    between atoms: _350  and  _353
REMARK  146  A    between atoms: _353  and  _354
REMARK  147  A    between atoms: _357  and  _359
REMARK  148  A    between atoms: _359  and  _360
REMARK  149  A    between atoms: _359  and  _362
REMARK  150  A    between atoms: _362  and  _363
REMARK  151  A    between atoms: _366  and  _368
REMARK  152  A    between atoms: _368  and  _369
REMARK  153  A    between atoms: _368  and  _371
REMARK  154  A    between atoms: _371  and  _372
REMARK  155  A    between atoms: _375  and  _377
REMARK  156  A    between atoms: _377  and  _378
REMARK  157  A    between atoms: _377  and  _380
REMARK  158  A    between atoms: _383  and  _385
REMARK  159  A    between atoms: _385  and  _386
REMARK  160  A    between atoms: _385  and  _388
REMARK  161  A    between atoms: _388  and  _389
REMARK  162  A    between atoms: _389  and  _390
REMARK  163  A    between atoms: _390  and  _391
REMARK  164  A    between atoms: _391  and  _392
REMARK  165  A    between atoms: _396  and  _398
REMARK  166  A    between atoms: _398  and  _399
REMARK  167  A    between atoms: _398  and  _401
REMARK  168  A    between atoms: _401  and  _402
REMARK  169  A    between atoms: _402  and  _403
REMARK  170  A    between atoms: _405  and  _407
REMARK  171  A    between atoms: _407  and  _408
REMARK  172  A    between atoms: _407  and  _410
REMARK  173  A    between atoms: _410  and  _411
REMARK  174  A    between atoms: _414  and  _416
REMARK  175  A    between atoms: _416  and  _417
REMARK  176  A    between atoms: _419  and  _421
REMARK  177  A    between atoms: _421  and  _422
REMARK  178  A    between atoms: _424  and  _426
REMARK  179  A    between atoms: _426  and  _427
REMARK  180  A    between atoms: _426  and  _429
REMARK  181  A    between atoms: _429  and  _430
REMARK  182  A    between atoms: _433  and  _435
REMARK  183  A    between atoms: _435  and  _436
REMARK  184  A    between atoms: _438  and  _440
REMARK  185  A    between atoms: _440  and  _441
REMARK  186  A    between atoms: _443  and  _445
REMARK  187  A    between atoms: _445  and  _446
REMARK  188  A    between atoms: _445  and  _448
REMARK  189  A    between atoms: _448  and  _449
REMARK  190  A    between atoms: _455  and  _457
REMARK  191  A    between atoms: _457  and  _458
REMARK  192  A    between atoms: _457  and  _460
REMARK  193  A    between atoms: _460  and  _461
REMARK  194  A    between atoms: _464  and  _466
REMARK  195  A    between atoms: _466  and  _467
REMARK  196  A    between atoms: _466  and  _469
REMARK  197  A    between atoms: _469  and  _470
REMARK  198  A    between atoms: _473  and  _475
REMARK  199  A    between atoms: _475  and  _476
REMARK  200  A    between atoms: _475  and  _478
REMARK  201  A    between atoms: _478  and  _479
REMARK  202  A    between atoms: _483  and  _484
REMARK  203  A    between atoms: _489  and  _491
REMARK  204  A    between atoms: _491  and  _492
REMARK  205  A    between atoms: _491  and  _494
REMARK  206  A    between atoms: _497  and  _499
REMARK  207  A    between atoms: _499  and  _500
REMARK  208  A    between atoms: _499  and  _502
REMARK  209  A    between atoms: _502  and  _503
REMARK  210  A    between atoms: _508  and  _510
REMARK  211  A    between atoms: _510  and  _511
REMARK  212  A    between atoms: _510  and  _513
REMARK  213  A    between atoms: _513  and  _514
REMARK  214  A    between atoms: _517  and  _519
REMARK  215  A    between atoms: _519  and  _520
REMARK  216  A    between atoms: _519  and  _522
REMARK  217  A    between atoms: _522  and  _523
REMARK  218  A    between atoms: _526  and  _528
REMARK  219  A    between atoms: _528  and  _529
REMARK  220  A    between atoms: _531  and  _533
REMARK  221  A    between atoms: _533  and  _534
REMARK  222  A    between atoms: _533  and  _536
REMARK  223  A    between atoms: _536  and  _537
REMARK  224  A    between atoms: _537  and  _538
REMARK  225  A    between atoms: _538  and  _539
REMARK  226  A    between atoms: _548  and  _550
REMARK  227  A    between atoms: _550  and  _551
REMARK  228  A    between atoms: _550  and  _553
REMARK  229  A    between atoms: _553  and  _554
REMARK                            x       y       z     vdW  Elec       q    Type
REMARK                         _______ _______ _______ _____ _____    ______ ____
ROOT
ATOM      1  O   HOH     1      29.203  28.316  14.870  0.00  0.00    +0.000 OA
ENDROOT
TORSDOF 0
REMARK  Name = ../refined-set-2016/2i4d/2i4d_pocket.pdb
REMARK  229 active torsions:
REMARK  status: ('A' for Active; 'I' for Inactive)
REMARK    1  A    between atoms: _1  and  _3
REMARK    2  A    between atoms: _3  and  _4
REMARK    3  A    between atoms: _3  and  _6
REMARK    4  A    between atoms: _6  and  _7
REMARK    5  A    between atoms: _7  and  _8
REMARK    6  A    between atoms: _8  and  _9
REMARK    7  A    between atoms: _18  and  _20
REMARK    8  A    between atoms: _20  and  _21
REMARK    9  A    between atoms: _20  and  _23
REMARK   10  A    between atoms: _23  and  _24
REMARK   11  A    between atoms: _27  and  _29
REMARK   12  A    between atoms: _29  and  _30
REMARK   13  A    between atoms: _29  and  _32
REMARK   14  A    between atoms: _32  and  _33
REMARK   15  A    between atoms: _36  and  _38
REMARK   16  A    between atoms: _38  and  _39
REMARK   17  A    between atoms: _38  and  _41
REMARK   18  A    between atoms: _41  and  _42
REMARK   19  A    between atoms: _45  and  _47
REMARK   20  A    between atoms: _47  and  _48
REMARK   21  A    between atoms: _47  and  _50
REMARK   22  A    between atoms: _50  and  _51
REMARK   23  A    between atoms: _54  and  _56
REMARK   24  A    between atoms: _56  and  _57
REMARK   25  A    between atoms: _59  and  _61
REMARK   26  A    between atoms: _61  and  _62
REMARK   27  A    between atoms: _65  and  _67
REMARK   28  A    between atoms: _67  and  _68
REMARK   29  A    between atoms: _67  and  _70
REMARK   30  A    between atoms: _70  and  _71
REMARK   31  A    between atoms: _74  and  _76
REMARK   32  A    between atoms: _76  and  _77
REMARK   33  A    between atoms: _76  and  _79
REMARK   34  A    between atoms: _79  and  _80
REMARK   35  A    between atoms: _83  and  _85
REMARK   36  A    between atoms: _85  and  _86
REMARK   37  A    between atoms: _85  and  _88
REMARK   38  A    between atoms: _88  and  _89
REMARK   39  A    between atoms: _92  and  _94
REMARK   40  A    between atoms: _94  and  _95
REMARK   41  A    between atoms: _94  and  _97
REMARK   42  A    between atoms: _100  and  _102
REMARK   43  A    between atoms: _102  and  _103
REMARK   44  A    between atoms: _102  and  _105
REMARK   45  A    between atoms: _105  and  _106
REMARK   46  A    between atoms: _106  and  _107
REMARK   47  A    between atoms: _107  and  _108
REMARK   48  A    between atoms: _108  and  _109
REMARK   49  A    between atoms: _113  and  _115
REMARK   50  A    between atoms: _115  and  _116
REMARK   51  A    between atoms: _115  and  _118
REMARK   52  A    between atoms: _118  and  _119
REMARK   53  A    between atoms: _119  and  _120
REMARK   54  A    between atoms: _122  and  _124
REMARK   55  A    between atoms: _124  and  _125
REMARK   56  A    between atoms: _124  and  _127
REMARK   57  A    between atoms: _127  and  _128
REMARK   58  A    between atoms: _131  and  _133
REMARK   59  A    between atoms: _133  and  _134
REMARK   60  A    between atoms: _136  and  _138
REMARK   61  A    between atoms: _138  and  _139
REMARK   62  A    between atoms: _141  and  _143
REMARK   63  A    between atoms: _143  and  _144
REMARK   64  A    between atoms: _143  and  _146
REMARK   65  A    between atoms: _146  and  _147
REMARK   66  A    between atoms: _150  and  _152
REMARK   67  A    between atoms: _152  and  _153
REMARK   68  A    between atoms: _155  and  _157
REMARK   69  A    between atoms: _157  and  _158
REMARK   70  A    between atoms: _160  and  _162
REMARK   71  A    between atoms: _162  and  _163
REMARK   72  A    between atoms: _162  and  _165
REMARK   73  A    between atoms: _165  and  _166
REMARK   74  A    between atoms: _172  and  _174
REMARK   75  A    between atoms: _174  and  _175
REMARK   76  A    between atoms: _174  and  _177
REMARK   77  A    between atoms: _177  and  _178
REMARK   78  A    between atoms: _181  and  _183
REMARK   79  A    between atoms: _183  and  _184
REMARK   80  A    between atoms: _183  and  _186
REMARK   81  A    between atoms: _189  and  _191
REMARK   82  A    between atoms: _191  and  _192
REMARK   83  A    between atoms: _191  and  _194
REMARK   84  A    between atoms: _194  and  _195
REMARK   85  A    between atoms: _198  and  _200
REMARK   86  A    between atoms: _200  and  _201
REMARK   87  A    between atoms: _200  and  _203
REMARK   88  A    between atoms: _203  and  _204
REMARK   89  A    between atoms: _208  and  _209
REMARK   90  A    between atoms: _214  and  _216
REMARK   91  A    between atoms: _216  and  _217
REMARK   92  A    between atoms: _216  and  _219
REMARK   93  A    between atoms: _222  and  _224
REMARK   94  A    between atoms: _224  and  _225
REMARK   95  A    between atoms: _224  and  _227
REMARK   96  A    between atoms: _227  and  _228
REMARK   97  A    between atoms: _233  and  _235
REMARK   98  A    between atoms: _235  and  _236
REMARK   99  A    between atoms: _235  and  _238
REMARK  100  A    between atoms: _238  and  _239
REMARK  101  A    between atoms: _242  and  _244
REMARK  102  A    between atoms: _244  and  _245
REMARK  103  A    between atoms: _244  and  _247
REMARK  104  A    between atoms: _247  and  _248
REMARK  105  A    between atoms: _251  and  _253
REMARK  106  A    between atoms: _253  and  _254
REMARK  107  A    between atoms: _256  and  _258
REMARK  108  A    between atoms: _258  and  _259
REMARK  109  A    between atoms: _258  and  _261
REMARK  110  A    between atoms: _261  and  _262
REMARK  111  A    between atoms: _262  and  _263
REMARK  112  A    between atoms: _263  and  _264
REMARK  113  A    between atoms: _273  and  _275
REMARK  114  A    between atoms: _275  and  _276
REMARK  115  A    between atoms: _275  and  _278
REMARK  116  A    between atoms: _278  and  _279
REMARK  117  A    between atoms: _284  and  _286
REMARK  118  A    between atoms: _286  and  _287
REMARK  119  A    between atoms: _286  and  _289
REMARK  120  A    between atoms: _289  and  _290
REMARK  121  A    between atoms: _290  and  _291
REMARK  122  A    between atoms: _291  and  _292
REMARK  123  A    between atoms: _301  and  _303
REMARK  124  A    between atoms: _303  and  _304
REMARK  125  A    between atoms: _303  and  _306
REMARK  126  A    between atoms: _306  and  _307
REMARK  127  A    between atoms: _310  and  _312
REMARK  128  A    between atoms: _312  and  _313
REMARK  129  A    between atoms: _312  and  _315
REMARK  130  A    between atoms: _315  and  _316
REMARK  131  A    between atoms: _319  and  _321
REMARK  132  A    between atoms: _321  and  _322
REMARK  133  A    between atoms: _321  and  _324
REMARK  134  A    between atoms: _324  and  _325
REMARK  135  A    between atoms: _328  and  _330
REMARK  136  A    between atoms: _330  and  _331
REMARK  137  A    between atoms: _330  and  _333
REMARK  138  A    between atoms: _333  and  _334
REMARK  139  A    between atoms: _337  and  _339
REMARK  140  A    between atoms: _339  and  _340
REMARK  141  A    between atoms: _342  and  _344
REMARK  142  A    between atoms: _344  and  _345
REMARK  143  A    between atoms: _348  and  _350
REMARK  144  A    between atoms: _350  and  _351
REMARK  145  A    between atoms: _350  and  _353
REMARK  146  A    between atoms: _353  and  _354
REMARK  147  A    between atoms: _357  and  _359
REMARK  148  A    between atoms: _359  and  _360
REMARK  149  A    between atoms: _359  and  _362
REMARK  150  A    between atoms: _362  and  _363
REMARK  151  A    between atoms: _366  and  _368
REMARK  152  A    between atoms: _368  and  _369
REMARK  153  A    between atoms: _368  and  _371
REMARK  154  A    between atoms: _371  and  _372
REMARK  155  A    between atoms: _375  and  _377
REMARK  156  A    between atoms: _377  and  _378
REMARK  157  A    between atoms: _377  and  _380
REMARK  158  A    between atoms: _383  and  _385
REMARK  159  A    between atoms: _385  and  _386
REMARK  160  A    between atoms: _385  and  _388
REMARK  161  A    between atoms: _388  and  _389
REMARK  162  A    between atoms: _389  and  _390
REMARK  163  A    between atoms: _390  and  _391
REMARK  164  A    between atoms: _391  and  _392
REMARK  165  A    between atoms: _396  and  _398
REMARK  166  A    between atoms: _398  and  _399
REMARK  167  A    between atoms: _398  and  _401
REMARK  168  A    between atoms: _401  and  _402
REMARK  169  A    between atoms: _402  and  _403
REMARK  170  A    between atoms: _405  and  _407
REMARK  171  A    between atoms: _407  and  _408
REMARK  172  A    between atoms: _407  and  _410
REMARK  173  A    between atoms: _410  and  _411
REMARK  174  A    between atoms: _414  and  _416
REMARK  175  A    between atoms: _416  and  _417
REMARK  176  A    between atoms: _419  and  _421
REMARK  177  A    between atoms: _421  and  _422
REMARK  178  A    between atoms: _424  and  _426
REMARK  179  A    between atoms: _426  and  _427
REMARK  180  A    between atoms: _426  and  _429
REMARK  181  A    between atoms: _429  and  _430
REMARK  182  A    between atoms: _433  and  _435
REMARK  183  A    between atoms: _435  and  _436
REMARK  184  A    between atoms: _438  and  _440
REMARK  185  A    between atoms: _440  and  _441
REMARK  186  A    between atoms: _443  and  _445
REMARK  187  A    between atoms: _445  and  _446
REMARK  188  A    between atoms: _445  and  _448
REMARK  189  A    between atoms: _448  and  _449
REMARK  190  A    between atoms: _455  and  _457
REMARK  191  A    between atoms: _457  and  _458
REMARK  192  A    between atoms: _457  and  _460
REMARK  193  A    between atoms: _460  and  _461
REMARK  194  A    between atoms: _464  and  _466
REMARK  195  A    between atoms: _466  and  _467
REMARK  196  A    between atoms: _466  and  _469
REMARK  197  A    between atoms: _469  and  _470
REMARK  198  A    between atoms: _473  and  _475
REMARK  199  A    between atoms: _475  and  _476
REMARK  200  A    between atoms: _475  and  _478
REMARK  201  A    between atoms: _478  and  _479
REMARK  202  A    between atoms: _483  and  _484
REMARK  203  A    between atoms: _489  and  _491
REMARK  204  A    between atoms: _491  and  _492
REMARK  205  A    between atoms: _491  and  _494
REMARK  206  A    between atoms: _497  and  _499
REMARK  207  A    between atoms: _499  and  _500
REMARK  208  A    between atoms: _499  and  _502
REMARK  209  A    between atoms: _502  and  _503
REMARK  210  A    between atoms: _508  and  _510
REMARK  211  A    between atoms: _510  and  _511
REMARK  212  A    between atoms: _510  and  _513
REMARK  213  A    between atoms: _513  and  _514
REMARK  214  A    between atoms: _517  and  _519
REMARK  215  A    between atoms: _519  and  _520
REMARK  216  A    between atoms: _519  and  _522
REMARK  217  A    between atoms: _522  and  _523
REMARK  218  A    between atoms: _526  and  _528
REMARK  219  A    between atoms: _528  and  _529
REMARK  220  A    between atoms: _531  and  _533
REMARK  221  A    between atoms: _533  and  _534
REMARK  222  A    between atoms: _533  and  _536
REMARK  223  A    between atoms: _536  and  _537
REMARK  224  A    between atoms: _537  and  _538
REMARK  225  A    between atoms: _538  and  _539
REMARK  226  A    between atoms: _548  and  _550
REMARK  227  A    between atoms: _550  and  _551
REMARK  228  A    between atoms: _550  and  _553
REMARK  229  A    between atoms: _553  and  _554
REMARK                            x       y       z     vdW  Elec       q    Type
REMARK                         _______ _______ _______ _____ _____    ______ ____
ROOT
ATOM      1  O   HOH     1      25.021  33.925  11.808  0.00  0.00    +0.000 OA
ENDROOT
TORSDOF 0
REMARK  Name = ../refined-set-2016/2i4d/2i4d_pocket.pdb
REMARK  229 active torsions:
REMARK  status: ('A' for Active; 'I' for Inactive)
REMARK    1  A    between atoms: _1  and  _3
REMARK    2  A    between atoms: _3  and  _4
REMARK    3  A    between atoms: _3  and  _6
REMARK    4  A    between atoms: _6  and  _7
REMARK    5  A    between atoms: _7  and  _8
REMARK    6  A    between atoms: _8  and  _9
REMARK    7  A    between atoms: _18  and  _20
REMARK    8  A    between atoms: _20  and  _21
REMARK    9  A    between atoms: _20  and  _23
REMARK   10  A    between atoms: _23  and  _24
REMARK   11  A    between atoms: _27  and  _29
REMARK   12  A    between atoms: _29  and  _30
REMARK   13  A    between atoms: _29  and  _32
REMARK   14  A    between atoms: _32  and  _33
REMARK   15  A    between atoms: _36  and  _38
REMARK   16  A    between atoms: _38  and  _39
REMARK   17  A    between atoms: _38  and  _41
REMARK   18  A    between atoms: _41  and  _42
REMARK   19  A    between atoms: _45  and  _47
REMARK   20  A    between atoms: _47  and  _48
REMARK   21  A    between atoms: _47  and  _50
REMARK   22  A    between atoms: _50  and  _51
REMARK   23  A    between atoms: _54  and  _56
REMARK   24  A    between atoms: _56  and  _57
REMARK   25  A    between atoms: _59  and  _61
REMARK   26  A    between atoms: _61  and  _62
REMARK   27  A    between atoms: _65  and  _67
REMARK   28  A    between atoms: _67  and  _68
REMARK   29  A    between atoms: _67  and  _70
REMARK   30  A    between atoms: _70  and  _71
REMARK   31  A    between atoms: _74  and  _76
REMARK   32  A    between atoms: _76  and  _77
REMARK   33  A    between atoms: _76  and  _79
REMARK   34  A    between atoms: _79  and  _80
REMARK   35  A    between atoms: _83  and  _85
REMARK   36  A    between atoms: _85  and  _86
REMARK   37  A    between atoms: _85  and  _88
REMARK   38  A    between atoms: _88  and  _89
REMARK   39  A    between atoms: _92  and  _94
REMARK   40  A    between atoms: _94  and  _95
REMARK   41  A    between atoms: _94  and  _97
REMARK   42  A    between atoms: _100  and  _102
REMARK   43  A    between atoms: _102  and  _103
REMARK   44  A    between atoms: _102  and  _105
REMARK   45  A    between atoms: _105  and  _106
REMARK   46  A    between atoms: _106  and  _107
REMARK   47  A    between atoms: _107  and  _108
REMARK   48  A    between atoms: _108  and  _109
REMARK   49  A    between atoms: _113  and  _115
REMARK   50  A    between atoms: _115  and  _116
REMARK   51  A    between atoms: _115  and  _118
REMARK   52  A    between atoms: _118  and  _119
REMARK   53  A    between atoms: _119  and  _120
REMARK   54  A    between atoms: _122  and  _124
REMARK   55  A    between atoms: _124  and  _125
REMARK   56  A    between atoms: _124  and  _127
REMARK   57  A    between atoms: _127  and  _128
REMARK   58  A    between atoms: _131  and  _133
REMARK   59  A    between atoms: _133  and  _134
REMARK   60  A    between atoms: _136  and  _138
REMARK   61  A    between atoms: _138  and  _139
REMARK   62  A    between atoms: _141  and  _143
REMARK   63  A    between atoms: _143  and  _144
REMARK   64  A    between atoms: _143  and  _146
REMARK   65  A    between atoms: _146  and  _147
REMARK   66  A    between atoms: _150  and  _152
REMARK   67  A    between atoms: _152  and  _153
REMARK   68  A    between atoms: _155  and  _157
REMARK   69  A    between atoms: _157  and  _158
REMARK   70  A    between atoms: _160  and  _162
REMARK   71  A    between atoms: _162  and  _163
REMARK   72  A    between atoms: _162  and  _165
REMARK   73  A    between atoms: _165  and  _166
REMARK   74  A    between atoms: _172  and  _174
REMARK   75  A    between atoms: _174  and  _175
REMARK   76  A    between atoms: _174  and  _177
REMARK   77  A    between atoms: _177  and  _178
REMARK   78  A    between atoms: _181  and  _183
REMARK   79  A    between atoms: _183  and  _184
REMARK   80  A    between atoms: _183  and  _186
REMARK   81  A    between atoms: _189  and  _191
REMARK   82  A    between atoms: _191  and  _192
REMARK   83  A    between atoms: _191  and  _194
REMARK   84  A    between atoms: _194  and  _195
REMARK   85  A    between atoms: _198  and  _200
REMARK   86  A    between atoms: _200  and  _201
REMARK   87  A    between atoms: _200  and  _203
REMARK   88  A    between atoms: _203  and  _204
REMARK   89  A    between atoms: _208  and  _209
REMARK   90  A    between atoms: _214  and  _216
REMARK   91  A    between atoms: _216  and  _217
REMARK   92  A    between atoms: _216  and  _219
REMARK   93  A    between atoms: _222  and  _224
REMARK   94  A    between atoms: _224  and  _225
REMARK   95  A    between atoms: _224  and  _227
REMARK   96  A    between atoms: _227  and  _228
REMARK   97  A    between atoms: _233  and  _235
REMARK   98  A    between atoms: _235  and  _236
REMARK   99  A    between atoms: _235  and  _238
REMARK  100  A    between atoms: _238  and  _239
REMARK  101  A    between atoms: _242  and  _244
REMARK  102  A    between atoms: _244  and  _245
REMARK  103  A    between atoms: _244  and  _247
REMARK  104  A    between atoms: _247  and  _248
REMARK  105  A    between atoms: _251  and  _253
REMARK  106  A    between atoms: _253  and  _254
REMARK  107  A    between atoms: _256  and  _258
REMARK  108  A    between atoms: _258  and  _259
REMARK  109  A    between atoms: _258  and  _261
REMARK  110  A    between atoms: _261  and  _262
REMARK  111  A    between atoms: _262  and  _263
REMARK  112  A    between atoms: _263  and  _264
REMARK  113  A    between atoms: _273  and  _275
REMARK  114  A    between atoms: _275  and  _276
REMARK  115  A    between atoms: _275  and  _278
REMARK  116  A    between atoms: _278  and  _279
REMARK  117  A    between atoms: _284  and  _286
REMARK  118  A    between atoms: _286  and  _287
REMARK  119  A    between atoms: _286  and  _289
REMARK  120  A    between atoms: _289  and  _290
REMARK  121  A    between atoms: _290  and  _291
REMARK  122  A    between atoms: _291  and  _292
REMARK  123  A    between atoms: _301  and  _303
REMARK  124  A    between atoms: _303  and  _304
REMARK  125  A    between atoms: _303  and  _306
REMARK  126  A    between atoms: _306  and  _307
REMARK  127  A    between atoms: _310  and  _312
REMARK  128  A    between atoms: _312  and  _313
REMARK  129  A    between atoms: _312  and  _315
REMARK  130  A    between atoms: _315  and  _316
REMARK  131  A    between atoms: _319  and  _321
REMARK  132  A    between atoms: _321  and  _322
REMARK  133  A    between atoms: _321  and  _324
REMARK  134  A    between atoms: _324  and  _325
REMARK  135  A    between atoms: _328  and  _330
REMARK  136  A    between atoms: _330  and  _331
REMARK  137  A    between atoms: _330  and  _333
REMARK  138  A    between atoms: _333  and  _334
REMARK  139  A    between atoms: _337  and  _339
REMARK  140  A    between atoms: _339  and  _340
REMARK  141  A    between atoms: _342  and  _344
REMARK  142  A    between atoms: _344  and  _345
REMARK  143  A    between atoms: _348  and  _350
REMARK  144  A    between atoms: _350  and  _351
REMARK  145  A    between atoms: _350  and  _353
REMARK  146  A    between atoms: _353  and  _354
REMARK  147  A    between atoms: _357  and  _359
REMARK  148  A    between atoms: _359  and  _360
REMARK  149  A    between atoms: _359  and  _362
REMARK  150  A    between atoms: _362  and  _363
REMARK  151  A    between atoms: _366  and  _368
REMARK  152  A    between atoms: _368  and  _369
REMARK  153  A    between atoms: _368  and  _371
REMARK  154  A    between atoms: _371  and  _372
REMARK  155  A    between atoms: _375  and  _377
REMARK  156  A    between atoms: _377  and  _378
REMARK  157  A    between atoms: _377  and  _380
REMARK  158  A    between atoms: _383  and  _385
REMARK  159  A    between atoms: _385  and  _386
REMARK  160  A    between atoms: _385  and  _388
REMARK  161  A    between atoms: _388  and  _389
REMARK  162  A    between atoms: _389  and  _390
REMARK  163  A    between atoms: _390  and  _391
REMARK  164  A    between atoms: _391  and  _392
REMARK  165  A    between atoms: _396  and  _398
REMARK  166  A    between atoms: _398  and  _399
REMARK  167  A    between atoms: _398  and  _401
REMARK  168  A    between atoms: _401  and  _402
REMARK  169  A    between atoms: _402  and  _403
REMARK  170  A    between atoms: _405  and  _407
REMARK  171  A    between atoms: _407  and  _408
REMARK  172  A    between atoms: _407  and  _410
REMARK  173  A    between atoms: _410  and  _411
REMARK  174  A    between atoms: _414  and  _416
REMARK  175  A    between atoms: _416  and  _417
REMARK  176  A    between atoms: _419  and  _421
REMARK  177  A    between atoms: _421  and  _422
REMARK  178  A    between atoms: _424  and  _426
REMARK  179  A    between atoms: _426  and  _427
REMARK  180  A    between atoms: _426  and  _429
REMARK  181  A    between atoms: _429  and  _430
REMARK  182  A    between atoms: _433  and  _435
REMARK  183  A    between atoms: _435  and  _436
REMARK  184  A    between atoms: _438  and  _440
REMARK  185  A    between atoms: _440  and  _441
REMARK  186  A    between atoms: _443  and  _445
REMARK  187  A    between atoms: _445  and  _446
REMARK  188  A    between atoms: _445  and  _448
REMARK  189  A    between atoms: _448  and  _449
REMARK  190  A    between atoms: _455  and  _457
REMARK  191  A    between atoms: _457  and  _458
REMARK  192  A    between atoms: _457  and  _460
REMARK  193  A    between atoms: _460  and  _461
REMARK  194  A    between atoms: _464  and  _466
REMARK  195  A    between atoms: _466  and  _467
REMARK  196  A    between atoms: _466  and  _469
REMARK  197  A    between atoms: _469  and  _470
REMARK  198  A    between atoms: _473  and  _475
REMARK  199  A    between atoms: _475  and  _476
REMARK  200  A    between atoms: _475  and  _478
REMARK  201  A    between atoms: _478  and  _479
REMARK  202  A    between atoms: _483  and  _484
REMARK  203  A    between atoms: _489  and  _491
REMARK  204  A    between atoms: _491  and  _492
REMARK  205  A    between atoms: _491  and  _494
REMARK  206  A    between atoms: _497  and  _499
REMARK  207  A    between atoms: _499  and  _500
REMARK  208  A    between atoms: _499  and  _502
REMARK  209  A    between atoms: _502  and  _503
REMARK  210  A    between atoms: _508  and  _510
REMARK  211  A    between atoms: _510  and  _511
REMARK  212  A    between atoms: _510  and  _513
REMARK  213  A    between atoms: _513  and  _514
REMARK  214  A    between atoms: _517  and  _519
REMARK  215  A    between atoms: _519  and  _520
REMARK  216  A    between atoms: _519  and  _522
REMARK  217  A    between atoms: _522  and  _523
REMARK  218  A    between atoms: _526  and  _528
REMARK  219  A    between atoms: _528  and  _529
REMARK  220  A    between atoms: _531  and  _533
REMARK  221  A    between atoms: _533  and  _534
REMARK  222  A    between atoms: _533  and  _536
REMARK  223  A    between atoms: _536  and  _537
REMARK  224  A    between atoms: _537  and  _538
REMARK  225  A    between atoms: _538  and  _539
REMARK  226  A    between atoms: _548  and  _550
REMARK  227  A    between atoms: _550  and  _551
REMARK  228  A    between atoms: _550  and  _553
REMARK  229  A    between atoms: _553  and  _554
REMARK                            x       y       z     vdW  Elec       q    Type
REMARK                         _______ _______ _______ _____ _____    ______ ____
ROOT
ATOM      1  O   HOH     1       5.149  22.112  11.741  0.00  0.00    +0.000 OA
ENDROOT
TORSDOF 0
REMARK  Name = ../refined-set-2016/2i4d/2i4d_pocket.pdb
REMARK  229 active torsions:
REMARK  status: ('A' for Active; 'I' for Inactive)
REMARK    1  A    between atoms: _1  and  _3
REMARK    2  A    between atoms: _3  and  _4
REMARK    3  A    between atoms: _3  and  _6
REMARK    4  A    between atoms: _6  and  _7
REMARK    5  A    between atoms: _7  and  _8
REMARK    6  A    between atoms: _8  and  _9
REMARK    7  A    between atoms: _18  and  _20
REMARK    8  A    between atoms: _20  and  _21
REMARK    9  A    between atoms: _20  and  _23
REMARK   10  A    between atoms: _23  and  _24
REMARK   11  A    between atoms: _27  and  _29
REMARK   12  A    between atoms: _29  and  _30
REMARK   13  A    between atoms: _29  and  _32
REMARK   14  A    between atoms: _32  and  _33
REMARK   15  A    between atoms: _36  and  _38
REMARK   16  A    between atoms: _38  and  _39
REMARK   17  A    between atoms: _38  and  _41
REMARK   18  A    between atoms: _41  and  _42
REMARK   19  A    between atoms: _45  and  _47
REMARK   20  A    between atoms: _47  and  _48
REMARK   21  A    between atoms: _47  and  _50
REMARK   22  A    between atoms: _50  and  _51
REMARK   23  A    between atoms: _54  and  _56
REMARK   24  A    between atoms: _56  and  _57
REMARK   25  A    between atoms: _59  and  _61
REMARK   26  A    between atoms: _61  and  _62
REMARK   27  A    between atoms: _65  and  _67
REMARK   28  A    between atoms: _67  and  _68
REMARK   29  A    between atoms: _67  and  _70
REMARK   30  A    between atoms: _70  and  _71
REMARK   31  A    between atoms: _74  and  _76
REMARK   32  A    between atoms: _76  and  _77
REMARK   33  A    between atoms: _76  and  _79
REMARK   34  A    between atoms: _79  and  _80
REMARK   35  A    between atoms: _83  and  _85
REMARK   36  A    between atoms: _85  and  _86
REMARK   37  A    between atoms: _85  and  _88
REMARK   38  A    between atoms: _88  and  _89
REMARK   39  A    between atoms: _92  and  _94
REMARK   40  A    between atoms: _94  and  _95
REMARK   41  A    between atoms: _94  and  _97
REMARK   42  A    between atoms: _100  and  _102
REMARK   43  A    between atoms: _102  and  _103
REMARK   44  A    between atoms: _102  and  _105
REMARK   45  A    between atoms: _105  and  _106
REMARK   46  A    between atoms: _106  and  _107
REMARK   47  A    between atoms: _107  and  _108
REMARK   48  A    between atoms: _108  and  _109
REMARK   49  A    between atoms: _113  and  _115
REMARK   50  A    between atoms: _115  and  _116
REMARK   51  A    between atoms: _115  and  _118
REMARK   52  A    between atoms: _118  and  _119
REMARK   53  A    between atoms: _119  and  _120
REMARK   54  A    between atoms: _122  and  _124
REMARK   55  A    between atoms: _124  and  _125
REMARK   56  A    between atoms: _124  and  _127
REMARK   57  A    between atoms: _127  and  _128
REMARK   58  A    between atoms: _131  and  _133
REMARK   59  A    between atoms: _133  and  _134
REMARK   60  A    between atoms: _136  and  _138
REMARK   61  A    between atoms: _138  and  _139
REMARK   62  A    between atoms: _141  and  _143
REMARK   63  A    between atoms: _143  and  _144
REMARK   64  A    between atoms: _143  and  _146
REMARK   65  A    between atoms: _146  and  _147
REMARK   66  A    between atoms: _150  and  _152
REMARK   67  A    between atoms: _152  and  _153
REMARK   68  A    between atoms: _155  and  _157
REMARK   69  A    between atoms: _157  and  _158
REMARK   70  A    between atoms: _160  and  _162
REMARK   71  A    between atoms: _162  and  _163
REMARK   72  A    between atoms: _162  and  _165
REMARK   73  A    between atoms: _165  and  _166
REMARK   74  A    between atoms: _172  and  _174
REMARK   75  A    between atoms: _174  and  _175
REMARK   76  A    between atoms: _174  and  _177
REMARK   77  A    between atoms: _177  and  _178
REMARK   78  A    between atoms: _181  and  _183
REMARK   79  A    between atoms: _183  and  _184
REMARK   80  A    between atoms: _183  and  _186
REMARK   81  A    between atoms: _189  and  _191
REMARK   82  A    between atoms: _191  and  _192
REMARK   83  A    between atoms: _191  and  _194
REMARK   84  A    between atoms: _194  and  _195
REMARK   85  A    between atoms: _198  and  _200
REMARK   86  A    between atoms: _200  and  _201
REMARK   87  A    between atoms: _200  and  _203
REMARK   88  A    between atoms: _203  and  _204
REMARK   89  A    between atoms: _208  and  _209
REMARK   90  A    between atoms: _214  and  _216
REMARK   91  A    between atoms: _216  and  _217
REMARK   92  A    between atoms: _216  and  _219
REMARK   93  A    between atoms: _222  and  _224
REMARK   94  A    between atoms: _224  and  _225
REMARK   95  A    between atoms: _224  and  _227
REMARK   96  A    between atoms: _227  and  _228
REMARK   97  A    between atoms: _233  and  _235
REMARK   98  A    between atoms: _235  and  _236
REMARK   99  A    between atoms: _235  and  _238
REMARK  100  A    between atoms: _238  and  _239
REMARK  101  A    between atoms: _242  and  _244
REMARK  102  A    between atoms: _244  and  _245
REMARK  103  A    between atoms: _244  and  _247
REMARK  104  A    between atoms: _247  and  _248
REMARK  105  A    between atoms: _251  and  _253
REMARK  106  A    between atoms: _253  and  _254
REMARK  107  A    between atoms: _256  and  _258
REMARK  108  A    between atoms: _258  and  _259
REMARK  109  A    between atoms: _258  and  _261
REMARK  110  A    between atoms: _261  and  _262
REMARK  111  A    between atoms: _262  and  _263
REMARK  112  A    between atoms: _263  and  _264
REMARK  113  A    between atoms: _273  and  _275
REMARK  114  A    between atoms: _275  and  _276
REMARK  115  A    between atoms: _275  and  _278
REMARK  116  A    between atoms: _278  and  _279
REMARK  117  A    between atoms: _284  and  _286
REMARK  118  A    between atoms: _286  and  _287
REMARK  119  A    between atoms: _286  and  _289
REMARK  120  A    between atoms: _289  and  _290
REMARK  121  A    between atoms: _290  and  _291
REMARK  122  A    between atoms: _291  and  _292
REMARK  123  A    between atoms: _301  and  _303
REMARK  124  A    between atoms: _303  and  _304
REMARK  125  A    between atoms: _303  and  _306
REMARK  126  A    between atoms: _306  and  _307
REMARK  127  A    between atoms: _310  and  _312
REMARK  128  A    between atoms: _312  and  _313
REMARK  129  A    between atoms: _312  and  _315
REMARK  130  A    between atoms: _315  and  _316
REMARK  131  A    between atoms: _319  and  _321
REMARK  132  A    between atoms: _321  and  _322
REMARK  133  A    between atoms: _321  and  _324
REMARK  134  A    between atoms: _324  and  _325
REMARK  135  A    between atoms: _328  and  _330
REMARK  136  A    between atoms: _330  and  _331
REMARK  137  A    between atoms: _330  and  _333
REMARK  138  A    between atoms: _333  and  _334
REMARK  139  A    between atoms: _337  and  _339
REMARK  140  A    between atoms: _339  and  _340
REMARK  141  A    between atoms: _342  and  _344
REMARK  142  A    between atoms: _344  and  _345
REMARK  143  A    between atoms: _348  and  _350
REMARK  144  A    between atoms: _350  and  _351
REMARK  145  A    between atoms: _350  and  _353
REMARK  146  A    between atoms: _353  and  _354
REMARK  147  A    between atoms: _357  and  _359
REMARK  148  A    between atoms: _359  and  _360
REMARK  149  A    between atoms: _359  and  _362
REMARK  150  A    between atoms: _362  and  _363
REMARK  151  A    between atoms: _366  and  _368
REMARK  152  A    between atoms: _368  and  _369
REMARK  153  A    between atoms: _368  and  _371
REMARK  154  A    between atoms: _371  and  _372
REMARK  155  A    between atoms: _375  and  _377
REMARK  156  A    between atoms: _377  and  _378
REMARK  157  A    between atoms: _377  and  _380
REMARK  158  A    between atoms: _383  and  _385
REMARK  159  A    between atoms: _385  and  _386
REMARK  160  A    between atoms: _385  and  _388
REMARK  161  A    between atoms: _388  and  _389
REMARK  162  A    between atoms: _389  and  _390
REMARK  163  A    between atoms: _390  and  _391
REMARK  164  A    between atoms: _391  and  _392
REMARK  165  A    between atoms: _396  and  _398
REMARK  166  A    between atoms: _398  and  _399
REMARK  167  A    between atoms: _398  and  _401
REMARK  168  A    between atoms: _401  and  _402
REMARK  169  A    between atoms: _402  and  _403
REMARK  170  A    between atoms: _405  and  _407
REMARK  171  A    between atoms: _407  and  _408
REMARK  172  A    between atoms: _407  and  _410
REMARK  173  A    between atoms: _410  and  _411
REMARK  174  A    between atoms: _414  and  _416
REMARK  175  A    between atoms: _416  and  _417
REMARK  176  A    between atoms: _419  and  _421
REMARK  177  A    between atoms: _421  and  _422
REMARK  178  A    between atoms: _424  and  _426
REMARK  179  A    between atoms: _426  and  _427
REMARK  180  A    between atoms: _426  and  _429
REMARK  181  A    between atoms: _429  and  _430
REMARK  182  A    between atoms: _433  and  _435
REMARK  183  A    between atoms: _435  and  _436
REMARK  184  A    between atoms: _438  and  _440
REMARK  185  A    between atoms: _440  and  _441
REMARK  186  A    between atoms: _443  and  _445
REMARK  187  A    between atoms: _445  and  _446
REMARK  188  A    between atoms: _445  and  _448
REMARK  189  A    between atoms: _448  and  _449
REMARK  190  A    between atoms: _455  and  _457
REMARK  191  A    between atoms: _457  and  _458
REMARK  192  A    between atoms: _457  and  _460
REMARK  193  A    between atoms: _460  and  _461
REMARK  194  A    between atoms: _464  and  _466
REMARK  195  A    between atoms: _466  and  _467
REMARK  196  A    between atoms: _466  and  _469
REMARK  197  A    between atoms: _469  and  _470
REMARK  198  A    between atoms: _473  and  _475
REMARK  199  A    between atoms: _475  and  _476
REMARK  200  A    between atoms: _475  and  _478
REMARK  201  A    between atoms: _478  and  _479
REMARK  202  A    between atoms: _483  and  _484
REMARK  203  A    between atoms: _489  and  _491
REMARK  204  A    between atoms: _491  and  _492
REMARK  205  A    between atoms: _491  and  _494
REMARK  206  A    between atoms: _497  and  _499
REMARK  207  A    between atoms: _499  and  _500
REMARK  208  A    between atoms: _499  and  _502
REMARK  209  A    between atoms: _502  and  _503
REMARK  210  A    between atoms: _508  and  _510
REMARK  211  A    between atoms: _510  and  _511
REMARK  212  A    between atoms: _510  and  _513
REMARK  213  A    between atoms: _513  and  _514
REMARK  214  A    between atoms: _517  and  _519
REMARK  215  A    between atoms: _519  and  _520
REMARK  216  A    between atoms: _519  and  _522
REMARK  217  A    between atoms: _522  and  _523
REMARK  218  A    between atoms: _526  and  _528
REMARK  219  A    between atoms: _528  and  _529
REMARK  220  A    between atoms: _531  and  _533
REMARK  221  A    between atoms: _533  and  _534
REMARK  222  A    between atoms: _533  and  _536
REMARK  223  A    between atoms: _536  and  _537
REMARK  224  A    between atoms: _537  and  _538
REMARK  225  A    between atoms: _538  and  _539
REMARK  226  A    between atoms: _548  and  _550
REMARK  227  A    between atoms: _550  and  _551
REMARK  228  A    between atoms: _550  and  _553
REMARK  229  A    between atoms: _553  and  _554
REMARK                            x       y       z     vdW  Elec       q    Type
REMARK                         _______ _______ _______ _____ _____    ______ ____
ROOT
ATOM      1  O   HOH     1      23.102  27.680  18.301  0.00  0.00    +0.000 OA
ENDROOT
TORSDOF 0
REMARK  Name = ../refined-set-2016/2i4d/2i4d_pocket.pdb
REMARK  229 active torsions:
REMARK  status: ('A' for Active; 'I' for Inactive)
REMARK    1  A    between atoms: _1  and  _3
REMARK    2  A    between atoms: _3  and  _4
REMARK    3  A    between atoms: _3  and  _6
REMARK    4  A    between atoms: _6  and  _7
REMARK    5  A    between atoms: _7  and  _8
REMARK    6  A    between atoms: _8  and  _9
REMARK    7  A    between atoms: _18  and  _20
REMARK    8  A    between atoms: _20  and  _21
REMARK    9  A    between atoms: _20  and  _23
REMARK   10  A    between atoms: _23  and  _24
REMARK   11  A    between atoms: _27  and  _29
REMARK   12  A    between atoms: _29  and  _30
REMARK   13  A    between atoms: _29  and  _32
REMARK   14  A    between atoms: _32  and  _33
REMARK   15  A    between atoms: _36  and  _38
REMARK   16  A    between atoms: _38  and  _39
REMARK   17  A    between atoms: _38  and  _41
REMARK   18  A    between atoms: _41  and  _42
REMARK   19  A    between atoms: _45  and  _47
REMARK   20  A    between atoms: _47  and  _48
REMARK   21  A    between atoms: _47  and  _50
REMARK   22  A    between atoms: _50  and  _51
REMARK   23  A    between atoms: _54  and  _56
REMARK   24  A    between atoms: _56  and  _57
REMARK   25  A    between atoms: _59  and  _61
REMARK   26  A    between atoms: _61  and  _62
REMARK   27  A    between atoms: _65  and  _67
REMARK   28  A    between atoms: _67  and  _68
REMARK   29  A    between atoms: _67  and  _70
REMARK   30  A    between atoms: _70  and  _71
REMARK   31  A    between atoms: _74  and  _76
REMARK   32  A    between atoms: _76  and  _77
REMARK   33  A    between atoms: _76  and  _79
REMARK   34  A    between atoms: _79  and  _80
REMARK   35  A    between atoms: _83  and  _85
REMARK   36  A    between atoms: _85  and  _86
REMARK   37  A    between atoms: _85  and  _88
REMARK   38  A    between atoms: _88  and  _89
REMARK   39  A    between atoms: _92  and  _94
REMARK   40  A    between atoms: _94  and  _95
REMARK   41  A    between atoms: _94  and  _97
REMARK   42  A    between atoms: _100  and  _102
REMARK   43  A    between atoms: _102  and  _103
REMARK   44  A    between atoms: _102  and  _105
REMARK   45  A    between atoms: _105  and  _106
REMARK   46  A    between atoms: _106  and  _107
REMARK   47  A    between atoms: _107  and  _108
REMARK   48  A    between atoms: _108  and  _109
REMARK   49  A    between atoms: _113  and  _115
REMARK   50  A    between atoms: _115  and  _116
REMARK   51  A    between atoms: _115  and  _118
REMARK   52  A    between atoms: _118  and  _119
REMARK   53  A    between atoms: _119  and  _120
REMARK   54  A    between atoms: _122  and  _124
REMARK   55  A    between atoms: _124  and  _125
REMARK   56  A    between atoms: _124  and  _127
REMARK   57  A    between atoms: _127  and  _128
REMARK   58  A    between atoms: _131  and  _133
REMARK   59  A    between atoms: _133  and  _134
REMARK   60  A    between atoms: _136  and  _138
REMARK   61  A    between atoms: _138  and  _139
REMARK   62  A    between atoms: _141  and  _143
REMARK   63  A    between atoms: _143  and  _144
REMARK   64  A    between atoms: _143  and  _146
REMARK   65  A    between atoms: _146  and  _147
REMARK   66  A    between atoms: _150  and  _152
REMARK   67  A    between atoms: _152  and  _153
REMARK   68  A    between atoms: _155  and  _157
REMARK   69  A    between atoms: _157  and  _158
REMARK   70  A    between atoms: _160  and  _162
REMARK   71  A    between atoms: _162  and  _163
REMARK   72  A    between atoms: _162  and  _165
REMARK   73  A    between atoms: _165  and  _166
REMARK   74  A    between atoms: _172  and  _174
REMARK   75  A    between atoms: _174  and  _175
REMARK   76  A    between atoms: _174  and  _177
REMARK   77  A    between atoms: _177  and  _178
REMARK   78  A    between atoms: _181  and  _183
REMARK   79  A    between atoms: _183  and  _184
REMARK   80  A    between atoms: _183  and  _186
REMARK   81  A    between atoms: _189  and  _191
REMARK   82  A    between atoms: _191  and  _192
REMARK   83  A    between atoms: _191  and  _194
REMARK   84  A    between atoms: _194  and  _195
REMARK   85  A    between atoms: _198  and  _200
REMARK   86  A    between atoms: _200  and  _201
REMARK   87  A    between atoms: _200  and  _203
REMARK   88  A    between atoms: _203  and  _204
REMARK   89  A    between atoms: _208  and  _209
REMARK   90  A    between atoms: _214  and  _216
REMARK   91  A    between atoms: _216  and  _217
REMARK   92  A    between atoms: _216  and  _219
REMARK   93  A    between atoms: _222  and  _224
REMARK   94  A    between atoms: _224  and  _225
REMARK   95  A    between atoms: _224  and  _227
REMARK   96  A    between atoms: _227  and  _228
REMARK   97  A    between atoms: _233  and  _235
REMARK   98  A    between atoms: _235  and  _236
REMARK   99  A    between atoms: _235  and  _238
REMARK  100  A    between atoms: _238  and  _239
REMARK  101  A    between atoms: _242  and  _244
REMARK  102  A    between atoms: _244  and  _245
REMARK  103  A    between atoms: _244  and  _247
REMARK  104  A    between atoms: _247  and  _248
REMARK  105  A    between atoms: _251  and  _253
REMARK  106  A    between atoms: _253  and  _254
REMARK  107  A    between atoms: _256  and  _258
REMARK  108  A    between atoms: _258  and  _259
REMARK  109  A    between atoms: _258  and  _261
REMARK  110  A    between atoms: _261  and  _262
REMARK  111  A    between atoms: _262  and  _263
REMARK  112  A    between atoms: _263  and  _264
REMARK  113  A    between atoms: _273  and  _275
REMARK  114  A    between atoms: _275  and  _276
REMARK  115  A    between atoms: _275  and  _278
REMARK  116  A    between atoms: _278  and  _279
REMARK  117  A    between atoms: _284  and  _286
REMARK  118  A    between atoms: _286  and  _287
REMARK  119  A    between atoms: _286  and  _289
REMARK  120  A    between atoms: _289  and  _290
REMARK  121  A    between atoms: _290  and  _291
REMARK  122  A    between atoms: _291  and  _292
REMARK  123  A    between atoms: _301  and  _303
REMARK  124  A    between atoms: _303  and  _304
REMARK  125  A    between atoms: _303  and  _306
REMARK  126  A    between atoms: _306  and  _307
REMARK  127  A    between atoms: _310  and  _312
REMARK  128  A    between atoms: _312  and  _313
REMARK  129  A    between atoms: _312  and  _315
REMARK  130  A    between atoms: _315  and  _316
REMARK  131  A    between atoms: _319  and  _321
REMARK  132  A    between atoms: _321  and  _322
REMARK  133  A    between atoms: _321  and  _324
REMARK  134  A    between atoms: _324  and  _325
REMARK  135  A    between atoms: _328  and  _330
REMARK  136  A    between atoms: _330  and  _331
REMARK  137  A    between atoms: _330  and  _333
REMARK  138  A    between atoms: _333  and  _334
REMARK  139  A    between atoms: _337  and  _339
REMARK  140  A    between atoms: _339  and  _340
REMARK  141  A    between atoms: _342  and  _344
REMARK  142  A    between atoms: _344  and  _345
REMARK  143  A    between atoms: _348  and  _350
REMARK  144  A    between atoms: _350  and  _351
REMARK  145  A    between atoms: _350  and  _353
REMARK  146  A    between atoms: _353  and  _354
REMARK  147  A    between atoms: _357  and  _359
REMARK  148  A    between atoms: _359  and  _360
REMARK  149  A    between atoms: _359  and  _362
REMARK  150  A    between atoms: _362  and  _363
REMARK  151  A    between atoms: _366  and  _368
REMARK  152  A    between atoms: _368  and  _369
REMARK  153  A    between atoms: _368  and  _371
REMARK  154  A    between atoms: _371  and  _372
REMARK  155  A    between atoms: _375  and  _377
REMARK  156  A    between atoms: _377  and  _378
REMARK  157  A    between atoms: _377  and  _380
REMARK  158  A    between atoms: _383  and  _385
REMARK  159  A    between atoms: _385  and  _386
REMARK  160  A    between atoms: _385  and  _388
REMARK  161  A    between atoms: _388  and  _389
REMARK  162  A    between atoms: _389  and  _390
REMARK  163  A    between atoms: _390  and  _391
REMARK  164  A    between atoms: _391  and  _392
REMARK  165  A    between atoms: _396  and  _398
REMARK  166  A    between atoms: _398  and  _399
REMARK  167  A    between atoms: _398  and  _401
REMARK  168  A    between atoms: _401  and  _402
REMARK  169  A    between atoms: _402  and  _403
REMARK  170  A    between atoms: _405  and  _407
REMARK  171  A    between atoms: _407  and  _408
REMARK  172  A    between atoms: _407  and  _410
REMARK  173  A    between atoms: _410  and  _411
REMARK  174  A    between atoms: _414  and  _416
REMARK  175  A    between atoms: _416  and  _417
REMARK  176  A    between atoms: _419  and  _421
REMARK  177  A    between atoms: _421  and  _422
REMARK  178  A    between atoms: _424  and  _426
REMARK  179  A    between atoms: _426  and  _427
REMARK  180  A    between atoms: _426  and  _429
REMARK  181  A    between atoms: _429  and  _430
REMARK  182  A    between atoms: _433  and  _435
REMARK  183  A    between atoms: _435  and  _436
REMARK  184  A    between atoms: _438  and  _440
REMARK  185  A    between atoms: _440  and  _441
REMARK  186  A    between atoms: _443  and  _445
REMARK  187  A    between atoms: _445  and  _446
REMARK  188  A    between atoms: _445  and  _448
REMARK  189  A    between atoms: _448  and  _449
REMARK  190  A    between atoms: _455  and  _457
REMARK  191  A    between atoms: _457  and  _458
REMARK  192  A    between atoms: _457  and  _460
REMARK  193  A    between atoms: _460  and  _461
REMARK  194  A    between atoms: _464  and  _466
REMARK  195  A    between atoms: _466  and  _467
REMARK  196  A    between atoms: _466  and  _469
REMARK  197  A    between atoms: _469  and  _470
REMARK  198  A    between atoms: _473  and  _475
REMARK  199  A    between atoms: _475  and  _476
REMARK  200  A    between atoms: _475  and  _478
REMARK  201  A    between atoms: _478  and  _479
REMARK  202  A    between atoms: _483  and  _484
REMARK  203  A    between atoms: _489  and  _491
REMARK  204  A    between atoms: _491  and  _492
REMARK  205  A    between atoms: _491  and  _494
REMARK  206  A    between atoms: _497  and  _499
REMARK  207  A    between atoms: _499  and  _500
REMARK  208  A    between atoms: _499  and  _502
REMARK  209  A    between atoms: _502  and  _503
REMARK  210  A    between atoms: _508  and  _510
REMARK  211  A    between atoms: _510  and  _511
REMARK  212  A    between atoms: _510  and  _513
REMARK  213  A    between atoms: _513  and  _514
REMARK  214  A    between atoms: _517  and  _519
REMARK  215  A    between atoms: _519  and  _520
REMARK  216  A    between atoms: _519  and  _522
REMARK  217  A    between atoms: _522  and  _523
REMARK  218  A    between atoms: _526  and  _528
REMARK  219  A    between atoms: _528  and  _529
REMARK  220  A    between atoms: _531  and  _533
REMARK  221  A    between atoms: _533  and  _534
REMARK  222  A    between atoms: _533  and  _536
REMARK  223  A    between atoms: _536  and  _537
REMARK  224  A    between atoms: _537  and  _538
REMARK  225  A    between atoms: _538  and  _539
REMARK  226  A    between atoms: _548  and  _550
REMARK  227  A    between atoms: _550  and  _551
REMARK  228  A    between atoms: _550  and  _553
REMARK  229  A    between atoms: _553  and  _554
REMARK                            x       y       z     vdW  Elec       q    Type
REMARK                         _______ _______ _______ _____ _____    ______ ____
ROOT
ATOM      1  O   HOH     1      24.505  30.899  16.479  0.00  0.00    +0.000 OA
ENDROOT
TORSDOF 0
REMARK  Name = ../refined-set-2016/2i4d/2i4d_pocket.pdb
REMARK  229 active torsions:
REMARK  status: ('A' for Active; 'I' for Inactive)
REMARK    1  A    between atoms: _1  and  _3
REMARK    2  A    between atoms: _3  and  _4
REMARK    3  A    between atoms: _3  and  _6
REMARK    4  A    between atoms: _6  and  _7
REMARK    5  A    between atoms: _7  and  _8
REMARK    6  A    between atoms: _8  and  _9
REMARK    7  A    between atoms: _18  and  _20
REMARK    8  A    between atoms: _20  and  _21
REMARK    9  A    between atoms: _20  and  _23
REMARK   10  A    between atoms: _23  and  _24
REMARK   11  A    between atoms: _27  and  _29
REMARK   12  A    between atoms: _29  and  _30
REMARK   13  A    between atoms: _29  and  _32
REMARK   14  A    between atoms: _32  and  _33
REMARK   15  A    between atoms: _36  and  _38
REMARK   16  A    between atoms: _38  and  _39
REMARK   17  A    between atoms: _38  and  _41
REMARK   18  A    between atoms: _41  and  _42
REMARK   19  A    between atoms: _45  and  _47
REMARK   20  A    between atoms: _47  and  _48
REMARK   21  A    between atoms: _47  and  _50
REMARK   22  A    between atoms: _50  and  _51
REMARK   23  A    between atoms: _54  and  _56
REMARK   24  A    between atoms: _56  and  _57
REMARK   25  A    between atoms: _59  and  _61
REMARK   26  A    between atoms: _61  and  _62
REMARK   27  A    between atoms: _65  and  _67
REMARK   28  A    between atoms: _67  and  _68
REMARK   29  A    between atoms: _67  and  _70
REMARK   30  A    between atoms: _70  and  _71
REMARK   31  A    between atoms: _74  and  _76
REMARK   32  A    between atoms: _76  and  _77
REMARK   33  A    between atoms: _76  and  _79
REMARK   34  A    between atoms: _79  and  _80
REMARK   35  A    between atoms: _83  and  _85
REMARK   36  A    between atoms: _85  and  _86
REMARK   37  A    between atoms: _85  and  _88
REMARK   38  A    between atoms: _88  and  _89
REMARK   39  A    between atoms: _92  and  _94
REMARK   40  A    between atoms: _94  and  _95
REMARK   41  A    between atoms: _94  and  _97
REMARK   42  A    between atoms: _100  and  _102
REMARK   43  A    between atoms: _102  and  _103
REMARK   44  A    between atoms: _102  and  _105
REMARK   45  A    between atoms: _105  and  _106
REMARK   46  A    between atoms: _106  and  _107
REMARK   47  A    between atoms: _107  and  _108
REMARK   48  A    between atoms: _108  and  _109
REMARK   49  A    between atoms: _113  and  _115
REMARK   50  A    between atoms: _115  and  _116
REMARK   51  A    between atoms: _115  and  _118
REMARK   52  A    between atoms: _118  and  _119
REMARK   53  A    between atoms: _119  and  _120
REMARK   54  A    between atoms: _122  and  _124
REMARK   55  A    between atoms: _124  and  _125
REMARK   56  A    between atoms: _124  and  _127
REMARK   57  A    between atoms: _127  and  _128
REMARK   58  A    between atoms: _131  and  _133
REMARK   59  A    between atoms: _133  and  _134
REMARK   60  A    between atoms: _136  and  _138
REMARK   61  A    between atoms: _138  and  _139
REMARK   62  A    between atoms: _141  and  _143
REMARK   63  A    between atoms: _143  and  _144
REMARK   64  A    between atoms: _143  and  _146
REMARK   65  A    between atoms: _146  and  _147
REMARK   66  A    between atoms: _150  and  _152
REMARK   67  A    between atoms: _152  and  _153
REMARK   68  A    between atoms: _155  and  _157
REMARK   69  A    between atoms: _157  and  _158
REMARK   70  A    between atoms: _160  and  _162
REMARK   71  A    between atoms: _162  and  _163
REMARK   72  A    between atoms: _162  and  _165
REMARK   73  A    between atoms: _165  and  _166
REMARK   74  A    between atoms: _172  and  _174
REMARK   75  A    between atoms: _174  and  _175
REMARK   76  A    between atoms: _174  and  _177
REMARK   77  A    between atoms: _177  and  _178
REMARK   78  A    between atoms: _181  and  _183
REMARK   79  A    between atoms: _183  and  _184
REMARK   80  A    between atoms: _183  and  _186
REMARK   81  A    between atoms: _189  and  _191
REMARK   82  A    between atoms: _191  and  _192
REMARK   83  A    between atoms: _191  and  _194
REMARK   84  A    between atoms: _194  and  _195
REMARK   85  A    between atoms: _198  and  _200
REMARK   86  A    between atoms: _200  and  _201
REMARK   87  A    between atoms: _200  and  _203
REMARK   88  A    between atoms: _203  and  _204
REMARK   89  A    between atoms: _208  and  _209
REMARK   90  A    between atoms: _214  and  _216
REMARK   91  A    between atoms: _216  and  _217
REMARK   92  A    between atoms: _216  and  _219
REMARK   93  A    between atoms: _222  and  _224
REMARK   94  A    between atoms: _224  and  _225
REMARK   95  A    between atoms: _224  and  _227
REMARK   96  A    between atoms: _227  and  _228
REMARK   97  A    between atoms: _233  and  _235
REMARK   98  A    between atoms: _235  and  _236
REMARK   99  A    between atoms: _235  and  _238
REMARK  100  A    between atoms: _238  and  _239
REMARK  101  A    between atoms: _242  and  _244
REMARK  102  A    between atoms: _244  and  _245
REMARK  103  A    between atoms: _244  and  _247
REMARK  104  A    between atoms: _247  and  _248
REMARK  105  A    between atoms: _251  and  _253
REMARK  106  A    between atoms: _253  and  _254
REMARK  107  A    between atoms: _256  and  _258
REMARK  108  A    between atoms: _258  and  _259
REMARK  109  A    between atoms: _258  and  _261
REMARK  110  A    between atoms: _261  and  _262
REMARK  111  A    between atoms: _262  and  _263
REMARK  112  A    between atoms: _263  and  _264
REMARK  113  A    between atoms: _273  and  _275
REMARK  114  A    between atoms: _275  and  _276
REMARK  115  A    between atoms: _275  and  _278
REMARK  116  A    between atoms: _278  and  _279
REMARK  117  A    between atoms: _284  and  _286
REMARK  118  A    between atoms: _286  and  _287
REMARK  119  A    between atoms: _286  and  _289
REMARK  120  A    between atoms: _289  and  _290
REMARK  121  A    between atoms: _290  and  _291
REMARK  122  A    between atoms: _291  and  _292
REMARK  123  A    between atoms: _301  and  _303
REMARK  124  A    between atoms: _303  and  _304
REMARK  125  A    between atoms: _303  and  _306
REMARK  126  A    between atoms: _306  and  _307
REMARK  127  A    between atoms: _310  and  _312
REMARK  128  A    between atoms: _312  and  _313
REMARK  129  A    between atoms: _312  and  _315
REMARK  130  A    between atoms: _315  and  _316
REMARK  131  A    between atoms: _319  and  _321
REMARK  132  A    between atoms: _321  and  _322
REMARK  133  A    between atoms: _321  and  _324
REMARK  134  A    between atoms: _324  and  _325
REMARK  135  A    between atoms: _328  and  _330
REMARK  136  A    between atoms: _330  and  _331
REMARK  137  A    between atoms: _330  and  _333
REMARK  138  A    between atoms: _333  and  _334
REMARK  139  A    between atoms: _337  and  _339
REMARK  140  A    between atoms: _339  and  _340
REMARK  141  A    between atoms: _342  and  _344
REMARK  142  A    between atoms: _344  and  _345
REMARK  143  A    between atoms: _348  and  _350
REMARK  144  A    between atoms: _350  and  _351
REMARK  145  A    between atoms: _350  and  _353
REMARK  146  A    between atoms: _353  and  _354
REMARK  147  A    between atoms: _357  and  _359
REMARK  148  A    between atoms: _359  and  _360
REMARK  149  A    between atoms: _359  and  _362
REMARK  150  A    between atoms: _362  and  _363
REMARK  151  A    between atoms: _366  and  _368
REMARK  152  A    between atoms: _368  and  _369
REMARK  153  A    between atoms: _368  and  _371
REMARK  154  A    between atoms: _371  and  _372
REMARK  155  A    between atoms: _375  and  _377
REMARK  156  A    between atoms: _377  and  _378
REMARK  157  A    between atoms: _377  and  _380
REMARK  158  A    between atoms: _383  and  _385
REMARK  159  A    between atoms: _385  and  _386
REMARK  160  A    between atoms: _385  and  _388
REMARK  161  A    between atoms: _388  and  _389
REMARK  162  A    between atoms: _389  and  _390
REMARK  163  A    between atoms: _390  and  _391
REMARK  164  A    between atoms: _391  and  _392
REMARK  165  A    between atoms: _396  and  _398
REMARK  166  A    between atoms: _398  and  _399
REMARK  167  A    between atoms: _398  and  _401
REMARK  168  A    between atoms: _401  and  _402
REMARK  169  A    between atoms: _402  and  _403
REMARK  170  A    between atoms: _405  and  _407
REMARK  171  A    between atoms: _407  and  _408
REMARK  172  A    between atoms: _407  and  _410
REMARK  173  A    between atoms: _410  and  _411
REMARK  174  A    between atoms: _414  and  _416
REMARK  175  A    between atoms: _416  and  _417
REMARK  176  A    between atoms: _419  and  _421
REMARK  177  A    between atoms: _421  and  _422
REMARK  178  A    between atoms: _424  and  _426
REMARK  179  A    between atoms: _426  and  _427
REMARK  180  A    between atoms: _426  and  _429
REMARK  181  A    between atoms: _429  and  _430
REMARK  182  A    between atoms: _433  and  _435
REMARK  183  A    between atoms: _435  and  _436
REMARK  184  A    between atoms: _438  and  _440
REMARK  185  A    between atoms: _440  and  _441
REMARK  186  A    between atoms: _443  and  _445
REMARK  187  A    between atoms: _445  and  _446
REMARK  188  A    between atoms: _445  and  _448
REMARK  189  A    between atoms: _448  and  _449
REMARK  190  A    between atoms: _455  and  _457
REMARK  191  A    between atoms: _457  and  _458
REMARK  192  A    between atoms: _457  and  _460
REMARK  193  A    between atoms: _460  and  _461
REMARK  194  A    between atoms: _464  and  _466
REMARK  195  A    between atoms: _466  and  _467
REMARK  196  A    between atoms: _466  and  _469
REMARK  197  A    between atoms: _469  and  _470
REMARK  198  A    between atoms: _473  and  _475
REMARK  199  A    between atoms: _475  and  _476
REMARK  200  A    between atoms: _475  and  _478
REMARK  201  A    between atoms: _478  and  _479
REMARK  202  A    between atoms: _483  and  _484
REMARK  203  A    between atoms: _489  and  _491
REMARK  204  A    between atoms: _491  and  _492
REMARK  205  A    between atoms: _491  and  _494
REMARK  206  A    between atoms: _497  and  _499
REMARK  207  A    between atoms: _499  and  _500
REMARK  208  A    between atoms: _499  and  _502
REMARK  209  A    between atoms: _502  and  _503
REMARK  210  A    between atoms: _508  and  _510
REMARK  211  A    between atoms: _510  and  _511
REMARK  212  A    between atoms: _510  and  _513
REMARK  213  A    between atoms: _513  and  _514
REMARK  214  A    between atoms: _517  and  _519
REMARK  215  A    between atoms: _519  and  _520
REMARK  216  A    between atoms: _519  and  _522
REMARK  217  A    between atoms: _522  and  _523
REMARK  218  A    between atoms: _526  and  _528
REMARK  219  A    between atoms: _528  and  _529
REMARK  220  A    between atoms: _531  and  _533
REMARK  221  A    between atoms: _533  and  _534
REMARK  222  A    between atoms: _533  and  _536
REMARK  223  A    between atoms: _536  and  _537
REMARK  224  A    between atoms: _537  and  _538
REMARK  225  A    between atoms: _538  and  _539
REMARK  226  A    between atoms: _548  and  _550
REMARK  227  A    between atoms: _550  and  _551
REMARK  228  A    between atoms: _550  and  _553
REMARK  229  A    between atoms: _553  and  _554
REMARK                            x       y       z     vdW  Elec       q    Type
REMARK                         _______ _______ _______ _____ _____    ______ ____
ROOT
ATOM      1  O   HOH     1      25.460  24.109  18.568  0.00  0.00    +0.000 OA
ENDROOT
TORSDOF 0
REMARK  Name = ../refined-set-2016/2i4d/2i4d_pocket.pdb
REMARK  229 active torsions:
REMARK  status: ('A' for Active; 'I' for Inactive)
REMARK    1  A    between atoms: _1  and  _3
REMARK    2  A    between atoms: _3  and  _4
REMARK    3  A    between atoms: _3  and  _6
REMARK    4  A    between atoms: _6  and  _7
REMARK    5  A    between atoms: _7  and  _8
REMARK    6  A    between atoms: _8  and  _9
REMARK    7  A    between atoms: _18  and  _20
REMARK    8  A    between atoms: _20  and  _21
REMARK    9  A    between atoms: _20  and  _23
REMARK   10  A    between atoms: _23  and  _24
REMARK   11  A    between atoms: _27  and  _29
REMARK   12  A    between atoms: _29  and  _30
REMARK   13  A    between atoms: _29  and  _32
REMARK   14  A    between atoms: _32  and  _33
REMARK   15  A    between atoms: _36  and  _38
REMARK   16  A    between atoms: _38  and  _39
REMARK   17  A    between atoms: _38  and  _41
REMARK   18  A    between atoms: _41  and  _42
REMARK   19  A    between atoms: _45  and  _47
REMARK   20  A    between atoms: _47  and  _48
REMARK   21  A    between atoms: _47  and  _50
REMARK   22  A    between atoms: _50  and  _51
REMARK   23  A    between atoms: _54  and  _56
REMARK   24  A    between atoms: _56  and  _57
REMARK   25  A    between atoms: _59  and  _61
REMARK   26  A    between atoms: _61  and  _62
REMARK   27  A    between atoms: _65  and  _67
REMARK   28  A    between atoms: _67  and  _68
REMARK   29  A    between atoms: _67  and  _70
REMARK   30  A    between atoms: _70  and  _71
REMARK   31  A    between atoms: _74  and  _76
REMARK   32  A    between atoms: _76  and  _77
REMARK   33  A    between atoms: _76  and  _79
REMARK   34  A    between atoms: _79  and  _80
REMARK   35  A    between atoms: _83  and  _85
REMARK   36  A    between atoms: _85  and  _86
REMARK   37  A    between atoms: _85  and  _88
REMARK   38  A    between atoms: _88  and  _89
REMARK   39  A    between atoms: _92  and  _94
REMARK   40  A    between atoms: _94  and  _95
REMARK   41  A    between atoms: _94  and  _97
REMARK   42  A    between atoms: _100  and  _102
REMARK   43  A    between atoms: _102  and  _103
REMARK   44  A    between atoms: _102  and  _105
REMARK   45  A    between atoms: _105  and  _106
REMARK   46  A    between atoms: _106  and  _107
REMARK   47  A    between atoms: _107  and  _108
REMARK   48  A    between atoms: _108  and  _109
REMARK   49  A    between atoms: _113  and  _115
REMARK   50  A    between atoms: _115  and  _116
REMARK   51  A    between atoms: _115  and  _118
REMARK   52  A    between atoms: _118  and  _119
REMARK   53  A    between atoms: _119  and  _120
REMARK   54  A    between atoms: _122  and  _124
REMARK   55  A    between atoms: _124  and  _125
REMARK   56  A    between atoms: _124  and  _127
REMARK   57  A    between atoms: _127  and  _128
REMARK   58  A    between atoms: _131  and  _133
REMARK   59  A    between atoms: _133  and  _134
REMARK   60  A    between atoms: _136  and  _138
REMARK   61  A    between atoms: _138  and  _139
REMARK   62  A    between atoms: _141  and  _143
REMARK   63  A    between atoms: _143  and  _144
REMARK   64  A    between atoms: _143  and  _146
REMARK   65  A    between atoms: _146  and  _147
REMARK   66  A    between atoms: _150  and  _152
REMARK   67  A    between atoms: _152  and  _153
REMARK   68  A    between atoms: _155  and  _157
REMARK   69  A    between atoms: _157  and  _158
REMARK   70  A    between atoms: _160  and  _162
REMARK   71  A    between atoms: _162  and  _163
REMARK   72  A    between atoms: _162  and  _165
REMARK   73  A    between atoms: _165  and  _166
REMARK   74  A    between atoms: _172  and  _174
REMARK   75  A    between atoms: _174  and  _175
REMARK   76  A    between atoms: _174  and  _177
REMARK   77  A    between atoms: _177  and  _178
REMARK   78  A    between atoms: _181  and  _183
REMARK   79  A    between atoms: _183  and  _184
REMARK   80  A    between atoms: _183  and  _186
REMARK   81  A    between atoms: _189  and  _191
REMARK   82  A    between atoms: _191  and  _192
REMARK   83  A    between atoms: _191  and  _194
REMARK   84  A    between atoms: _194  and  _195
REMARK   85  A    between atoms: _198  and  _200
REMARK   86  A    between atoms: _200  and  _201
REMARK   87  A    between atoms: _200  and  _203
REMARK   88  A    between atoms: _203  and  _204
REMARK   89  A    between atoms: _208  and  _209
REMARK   90  A    between atoms: _214  and  _216
REMARK   91  A    between atoms: _216  and  _217
REMARK   92  A    between atoms: _216  and  _219
REMARK   93  A    between atoms: _222  and  _224
REMARK   94  A    between atoms: _224  and  _225
REMARK   95  A    between atoms: _224  and  _227
REMARK   96  A    between atoms: _227  and  _228
REMARK   97  A    between atoms: _233  and  _235
REMARK   98  A    between atoms: _235  and  _236
REMARK   99  A    between atoms: _235  and  _238
REMARK  100  A    between atoms: _238  and  _239
REMARK  101  A    between atoms: _242  and  _244
REMARK  102  A    between atoms: _244  and  _245
REMARK  103  A    between atoms: _244  and  _247
REMARK  104  A    between atoms: _247  and  _248
REMARK  105  A    between atoms: _251  and  _253
REMARK  106  A    between atoms: _253  and  _254
REMARK  107  A    between atoms: _256  and  _258
REMARK  108  A    between atoms: _258  and  _259
REMARK  109  A    between atoms: _258  and  _261
REMARK  110  A    between atoms: _261  and  _262
REMARK  111  A    between atoms: _262  and  _263
REMARK  112  A    between atoms: _263  and  _264
REMARK  113  A    between atoms: _273  and  _275
REMARK  114  A    between atoms: _275  and  _276
REMARK  115  A    between atoms: _275  and  _278
REMARK  116  A    between atoms: _278  and  _279
REMARK  117  A    between atoms: _284  and  _286
REMARK  118  A    between atoms: _286  and  _287
REMARK  119  A    between atoms: _286  and  _289
REMARK  120  A    between atoms: _289  and  _290
REMARK  121  A    between atoms: _290  and  _291
REMARK  122  A    between atoms: _291  and  _292
REMARK  123  A    between atoms: _301  and  _303
REMARK  124  A    between atoms: _303  and  _304
REMARK  125  A    between atoms: _303  and  _306
REMARK  126  A    between atoms: _306  and  _307
REMARK  127  A    between atoms: _310  and  _312
REMARK  128  A    between atoms: _312  and  _313
REMARK  129  A    between atoms: _312  and  _315
REMARK  130  A    between atoms: _315  and  _316
REMARK  131  A    between atoms: _319  and  _321
REMARK  132  A    between atoms: _321  and  _322
REMARK  133  A    between atoms: _321  and  _324
REMARK  134  A    between atoms: _324  and  _325
REMARK  135  A    between atoms: _328  and  _330
REMARK  136  A    between atoms: _330  and  _331
REMARK  137  A    between atoms: _330  and  _333
REMARK  138  A    between atoms: _333  and  _334
REMARK  139  A    between atoms: _337  and  _339
REMARK  140  A    between atoms: _339  and  _340
REMARK  141  A    between atoms: _342  and  _344
REMARK  142  A    between atoms: _344  and  _345
REMARK  143  A    between atoms: _348  and  _350
REMARK  144  A    between atoms: _350  and  _351
REMARK  145  A    between atoms: _350  and  _353
REMARK  146  A    between atoms: _353  and  _354
REMARK  147  A    between atoms: _357  and  _359
REMARK  148  A    between atoms: _359  and  _360
REMARK  149  A    between atoms: _359  and  _362
REMARK  150  A    between atoms: _362  and  _363
REMARK  151  A    between atoms: _366  and  _368
REMARK  152  A    between atoms: _368  and  _369
REMARK  153  A    between atoms: _368  and  _371
REMARK  154  A    between atoms: _371  and  _372
REMARK  155  A    between atoms: _375  and  _377
REMARK  156  A    between atoms: _377  and  _378
REMARK  157  A    between atoms: _377  and  _380
REMARK  158  A    between atoms: _383  and  _385
REMARK  159  A    between atoms: _385  and  _386
REMARK  160  A    between atoms: _385  and  _388
REMARK  161  A    between atoms: _388  and  _389
REMARK  162  A    between atoms: _389  and  _390
REMARK  163  A    between atoms: _390  and  _391
REMARK  164  A    between atoms: _391  and  _392
REMARK  165  A    between atoms: _396  and  _398
REMARK  166  A    between atoms: _398  and  _399
REMARK  167  A    between atoms: _398  and  _401
REMARK  168  A    between atoms: _401  and  _402
REMARK  169  A    between atoms: _402  and  _403
REMARK  170  A    between atoms: _405  and  _407
REMARK  171  A    between atoms: _407  and  _408
REMARK  172  A    between atoms: _407  and  _410
REMARK  173  A    between atoms: _410  and  _411
REMARK  174  A    between atoms: _414  and  _416
REMARK  175  A    between atoms: _416  and  _417
REMARK  176  A    between atoms: _419  and  _421
REMARK  177  A    between atoms: _421  and  _422
REMARK  178  A    between atoms: _424  and  _426
REMARK  179  A    between atoms: _426  and  _427
REMARK  180  A    between atoms: _426  and  _429
REMARK  181  A    between atoms: _429  and  _430
REMARK  182  A    between atoms: _433  and  _435
REMARK  183  A    between atoms: _435  and  _436
REMARK  184  A    between atoms: _438  and  _440
REMARK  185  A    between atoms: _440  and  _441
REMARK  186  A    between atoms: _443  and  _445
REMARK  187  A    between atoms: _445  and  _446
REMARK  188  A    between atoms: _445  and  _448
REMARK  189  A    between atoms: _448  and  _449
REMARK  190  A    between atoms: _455  and  _457
REMARK  191  A    between atoms: _457  and  _458
REMARK  192  A    between atoms: _457  and  _460
REMARK  193  A    between atoms: _460  and  _461
REMARK  194  A    between atoms: _464  and  _466
REMARK  195  A    between atoms: _466  and  _467
REMARK  196  A    between atoms: _466  and  _469
REMARK  197  A    between atoms: _469  and  _470
REMARK  198  A    between atoms: _473  and  _475
REMARK  199  A    between atoms: _475  and  _476
REMARK  200  A    between atoms: _475  and  _478
REMARK  201  A    between atoms: _478  and  _479
REMARK  202  A    between atoms: _483  and  _484
REMARK  203  A    between atoms: _489  and  _491
REMARK  204  A    between atoms: _491  and  _492
REMARK  205  A    between atoms: _491  and  _494
REMARK  206  A    between atoms: _497  and  _499
REMARK  207  A    between atoms: _499  and  _500
REMARK  208  A    between atoms: _499  and  _502
REMARK  209  A    between atoms: _502  and  _503
REMARK  210  A    between atoms: _508  and  _510
REMARK  211  A    between atoms: _510  and  _511
REMARK  212  A    between atoms: _510  and  _513
REMARK  213  A    between atoms: _513  and  _514
REMARK  214  A    between atoms: _517  and  _519
REMARK  215  A    between atoms: _519  and  _520
REMARK  216  A    between atoms: _519  and  _522
REMARK  217  A    between atoms: _522  and  _523
REMARK  218  A    between atoms: _526  and  _528
REMARK  219  A    between atoms: _528  and  _529
REMARK  220  A    between atoms: _531  and  _533
REMARK  221  A    between atoms: _533  and  _534
REMARK  222  A    between atoms: _533  and  _536
REMARK  223  A    between atoms: _536  and  _537
REMARK  224  A    between atoms: _537  and  _538
REMARK  225  A    between atoms: _538  and  _539
REMARK  226  A    between atoms: _548  and  _550
REMARK  227  A    between atoms: _550  and  _551
REMARK  228  A    between atoms: _550  and  _553
REMARK  229  A    between atoms: _553  and  _554
REMARK                            x       y       z     vdW  Elec       q    Type
REMARK                         _______ _______ _______ _____ _____    ______ ____
ROOT
ATOM      1  O   HOH     1      19.772  34.401  11.075  0.00  0.00    +0.000 OA
ENDROOT
TORSDOF 0
REMARK  Name = ../refined-set-2016/2i4d/2i4d_pocket.pdb
REMARK  229 active torsions:
REMARK  status: ('A' for Active; 'I' for Inactive)
REMARK    1  A    between atoms: _1  and  _3
REMARK    2  A    between atoms: _3  and  _4
REMARK    3  A    between atoms: _3  and  _6
REMARK    4  A    between atoms: _6  and  _7
REMARK    5  A    between atoms: _7  and  _8
REMARK    6  A    between atoms: _8  and  _9
REMARK    7  A    between atoms: _18  and  _20
REMARK    8  A    between atoms: _20  and  _21
REMARK    9  A    between atoms: _20  and  _23
REMARK   10  A    between atoms: _23  and  _24
REMARK   11  A    between atoms: _27  and  _29
REMARK   12  A    between atoms: _29  and  _30
REMARK   13  A    between atoms: _29  and  _32
REMARK   14  A    between atoms: _32  and  _33
REMARK   15  A    between atoms: _36  and  _38
REMARK   16  A    between atoms: _38  and  _39
REMARK   17  A    between atoms: _38  and  _41
REMARK   18  A    between atoms: _41  and  _42
REMARK   19  A    between atoms: _45  and  _47
REMARK   20  A    between atoms: _47  and  _48
REMARK   21  A    between atoms: _47  and  _50
REMARK   22  A    between atoms: _50  and  _51
REMARK   23  A    between atoms: _54  and  _56
REMARK   24  A    between atoms: _56  and  _57
REMARK   25  A    between atoms: _59  and  _61
REMARK   26  A    between atoms: _61  and  _62
REMARK   27  A    between atoms: _65  and  _67
REMARK   28  A    between atoms: _67  and  _68
REMARK   29  A    between atoms: _67  and  _70
REMARK   30  A    between atoms: _70  and  _71
REMARK   31  A    between atoms: _74  and  _76
REMARK   32  A    between atoms: _76  and  _77
REMARK   33  A    between atoms: _76  and  _79
REMARK   34  A    between atoms: _79  and  _80
REMARK   35  A    between atoms: _83  and  _85
REMARK   36  A    between atoms: _85  and  _86
REMARK   37  A    between atoms: _85  and  _88
REMARK   38  A    between atoms: _88  and  _89
REMARK   39  A    between atoms: _92  and  _94
REMARK   40  A    between atoms: _94  and  _95
REMARK   41  A    between atoms: _94  and  _97
REMARK   42  A    between atoms: _100  and  _102
REMARK   43  A    between atoms: _102  and  _103
REMARK   44  A    between atoms: _102  and  _105
REMARK   45  A    between atoms: _105  and  _106
REMARK   46  A    between atoms: _106  and  _107
REMARK   47  A    between atoms: _107  and  _108
REMARK   48  A    between atoms: _108  and  _109
REMARK   49  A    between atoms: _113  and  _115
REMARK   50  A    between atoms: _115  and  _116
REMARK   51  A    between atoms: _115  and  _118
REMARK   52  A    between atoms: _118  and  _119
REMARK   53  A    between atoms: _119  and  _120
REMARK   54  A    between atoms: _122  and  _124
REMARK   55  A    between atoms: _124  and  _125
REMARK   56  A    between atoms: _124  and  _127
REMARK   57  A    between atoms: _127  and  _128
REMARK   58  A    between atoms: _131  and  _133
REMARK   59  A    between atoms: _133  and  _134
REMARK   60  A    between atoms: _136  and  _138
REMARK   61  A    between atoms: _138  and  _139
REMARK   62  A    between atoms: _141  and  _143
REMARK   63  A    between atoms: _143  and  _144
REMARK   64  A    between atoms: _143  and  _146
REMARK   65  A    between atoms: _146  and  _147
REMARK   66  A    between atoms: _150  and  _152
REMARK   67  A    between atoms: _152  and  _153
REMARK   68  A    between atoms: _155  and  _157
REMARK   69  A    between atoms: _157  and  _158
REMARK   70  A    between atoms: _160  and  _162
REMARK   71  A    between atoms: _162  and  _163
REMARK   72  A    between atoms: _162  and  _165
REMARK   73  A    between atoms: _165  and  _166
REMARK   74  A    between atoms: _172  and  _174
REMARK   75  A    between atoms: _174  and  _175
REMARK   76  A    between atoms: _174  and  _177
REMARK   77  A    between atoms: _177  and  _178
REMARK   78  A    between atoms: _181  and  _183
REMARK   79  A    between atoms: _183  and  _184
REMARK   80  A    between atoms: _183  and  _186
REMARK   81  A    between atoms: _189  and  _191
REMARK   82  A    between atoms: _191  and  _192
REMARK   83  A    between atoms: _191  and  _194
REMARK   84  A    between atoms: _194  and  _195
REMARK   85  A    between atoms: _198  and  _200
REMARK   86  A    between atoms: _200  and  _201
REMARK   87  A    between atoms: _200  and  _203
REMARK   88  A    between atoms: _203  and  _204
REMARK   89  A    between atoms: _208  and  _209
REMARK   90  A    between atoms: _214  and  _216
REMARK   91  A    between atoms: _216  and  _217
REMARK   92  A    between atoms: _216  and  _219
REMARK   93  A    between atoms: _222  and  _224
REMARK   94  A    between atoms: _224  and  _225
REMARK   95  A    between atoms: _224  and  _227
REMARK   96  A    between atoms: _227  and  _228
REMARK   97  A    between atoms: _233  and  _235
REMARK   98  A    between atoms: _235  and  _236
REMARK   99  A    between atoms: _235  and  _238
REMARK  100  A    between atoms: _238  and  _239
REMARK  101  A    between atoms: _242  and  _244
REMARK  102  A    between atoms: _244  and  _245
REMARK  103  A    between atoms: _244  and  _247
REMARK  104  A    between atoms: _247  and  _248
REMARK  105  A    between atoms: _251  and  _253
REMARK  106  A    between atoms: _253  and  _254
REMARK  107  A    between atoms: _256  and  _258
REMARK  108  A    between atoms: _258  and  _259
REMARK  109  A    between atoms: _258  and  _261
REMARK  110  A    between atoms: _261  and  _262
REMARK  111  A    between atoms: _262  and  _263
REMARK  112  A    between atoms: _263  and  _264
REMARK  113  A    between atoms: _273  and  _275
REMARK  114  A    between atoms: _275  and  _276
REMARK  115  A    between atoms: _275  and  _278
REMARK  116  A    between atoms: _278  and  _279
REMARK  117  A    between atoms: _284  and  _286
REMARK  118  A    between atoms: _286  and  _287
REMARK  119  A    between atoms: _286  and  _289
REMARK  120  A    between atoms: _289  and  _290
REMARK  121  A    between atoms: _290  and  _291
REMARK  122  A    between atoms: _291  and  _292
REMARK  123  A    between atoms: _301  and  _303
REMARK  124  A    between atoms: _303  and  _304
REMARK  125  A    between atoms: _303  and  _306
REMARK  126  A    between atoms: _306  and  _307
REMARK  127  A    between atoms: _310  and  _312
REMARK  128  A    between atoms: _312  and  _313
REMARK  129  A    between atoms: _312  and  _315
REMARK  130  A    between atoms: _315  and  _316
REMARK  131  A    between atoms: _319  and  _321
REMARK  132  A    between atoms: _321  and  _322
REMARK  133  A    between atoms: _321  and  _324
REMARK  134  A    between atoms: _324  and  _325
REMARK  135  A    between atoms: _328  and  _330
REMARK  136  A    between atoms: _330  and  _331
REMARK  137  A    between atoms: _330  and  _333
REMARK  138  A    between atoms: _333  and  _334
REMARK  139  A    between atoms: _337  and  _339
REMARK  140  A    between atoms: _339  and  _340
REMARK  141  A    between atoms: _342  and  _344
REMARK  142  A    between atoms: _344  and  _345
REMARK  143  A    between atoms: _348  and  _350
REMARK  144  A    between atoms: _350  and  _351
REMARK  145  A    between atoms: _350  and  _353
REMARK  146  A    between atoms: _353  and  _354
REMARK  147  A    between atoms: _357  and  _359
REMARK  148  A    between atoms: _359  and  _360
REMARK  149  A    between atoms: _359  and  _362
REMARK  150  A    between atoms: _362  and  _363
REMARK  151  A    between atoms: _366  and  _368
REMARK  152  A    between atoms: _368  and  _369
REMARK  153  A    between atoms: _368  and  _371
REMARK  154  A    between atoms: _371  and  _372
REMARK  155  A    between atoms: _375  and  _377
REMARK  156  A    between atoms: _377  and  _378
REMARK  157  A    between atoms: _377  and  _380
REMARK  158  A    between atoms: _383  and  _385
REMARK  159  A    between atoms: _385  and  _386
REMARK  160  A    between atoms: _385  and  _388
REMARK  161  A    between atoms: _388  and  _389
REMARK  162  A    between atoms: _389  and  _390
REMARK  163  A    between atoms: _390  and  _391
REMARK  164  A    between atoms: _391  and  _392
REMARK  165  A    between atoms: _396  and  _398
REMARK  166  A    between atoms: _398  and  _399
REMARK  167  A    between atoms: _398  and  _401
REMARK  168  A    between atoms: _401  and  _402
REMARK  169  A    between atoms: _402  and  _403
REMARK  170  A    between atoms: _405  and  _407
REMARK  171  A    between atoms: _407  and  _408
REMARK  172  A    between atoms: _407  and  _410
REMARK  173  A    between atoms: _410  and  _411
REMARK  174  A    between atoms: _414  and  _416
REMARK  175  A    between atoms: _416  and  _417
REMARK  176  A    between atoms: _419  and  _421
REMARK  177  A    between atoms: _421  and  _422
REMARK  178  A    between atoms: _424  and  _426
REMARK  179  A    between atoms: _426  and  _427
REMARK  180  A    between atoms: _426  and  _429
REMARK  181  A    between atoms: _429  and  _430
REMARK  182  A    between atoms: _433  and  _435
REMARK  183  A    between atoms: _435  and  _436
REMARK  184  A    between atoms: _438  and  _440
REMARK  185  A    between atoms: _440  and  _441
REMARK  186  A    between atoms: _443  and  _445
REMARK  187  A    between atoms: _445  and  _446
REMARK  188  A    between atoms: _445  and  _448
REMARK  189  A    between atoms: _448  and  _449
REMARK  190  A    between atoms: _455  and  _457
REMARK  191  A    between atoms: _457  and  _458
REMARK  192  A    between atoms: _457  and  _460
REMARK  193  A    between atoms: _460  and  _461
REMARK  194  A    between atoms: _464  and  _466
REMARK  195  A    between atoms: _466  and  _467
REMARK  196  A    between atoms: _466  and  _469
REMARK  197  A    between atoms: _469  and  _470
REMARK  198  A    between atoms: _473  and  _475
REMARK  199  A    between atoms: _475  and  _476
REMARK  200  A    between atoms: _475  and  _478
REMARK  201  A    between atoms: _478  and  _479
REMARK  202  A    between atoms: _483  and  _484
REMARK  203  A    between atoms: _489  and  _491
REMARK  204  A    between atoms: _491  and  _492
REMARK  205  A    between atoms: _491  and  _494
REMARK  206  A    between atoms: _497  and  _499
REMARK  207  A    between atoms: _499  and  _500
REMARK  208  A    between atoms: _499  and  _502
REMARK  209  A    between atoms: _502  and  _503
REMARK  210  A    between atoms: _508  and  _510
REMARK  211  A    between atoms: _510  and  _511
REMARK  212  A    between atoms: _510  and  _513
REMARK  213  A    between atoms: _513  and  _514
REMARK  214  A    between atoms: _517  and  _519
REMARK  215  A    between atoms: _519  and  _520
REMARK  216  A    between atoms: _519  and  _522
REMARK  217  A    between atoms: _522  and  _523
REMARK  218  A    between atoms: _526  and  _528
REMARK  219  A    between atoms: _528  and  _529
REMARK  220  A    between atoms: _531  and  _533
REMARK  221  A    between atoms: _533  and  _534
REMARK  222  A    between atoms: _533  and  _536
REMARK  223  A    between atoms: _536  and  _537
REMARK  224  A    between atoms: _537  and  _538
REMARK  225  A    between atoms: _538  and  _539
REMARK  226  A    between atoms: _548  and  _550
REMARK  227  A    between atoms: _550  and  _551
REMARK  228  A    between atoms: _550  and  _553
REMARK  229  A    between atoms: _553  and  _554
REMARK                            x       y       z     vdW  Elec       q    Type
REMARK                         _______ _______ _______ _____ _____    ______ ____
ROOT
ATOM      1  O   HOH     1       4.314  16.269  13.536  0.00  0.00    +0.000 OA
ENDROOT
TORSDOF 0
REMARK  Name = ../refined-set-2016/2i4d/2i4d_pocket.pdb
REMARK  229 active torsions:
REMARK  status: ('A' for Active; 'I' for Inactive)
REMARK    1  A    between atoms: _1  and  _3
REMARK    2  A    between atoms: _3  and  _4
REMARK    3  A    between atoms: _3  and  _6
REMARK    4  A    between atoms: _6  and  _7
REMARK    5  A    between atoms: _7  and  _8
REMARK    6  A    between atoms: _8  and  _9
REMARK    7  A    between atoms: _18  and  _20
REMARK    8  A    between atoms: _20  and  _21
REMARK    9  A    between atoms: _20  and  _23
REMARK   10  A    between atoms: _23  and  _24
REMARK   11  A    between atoms: _27  and  _29
REMARK   12  A    between atoms: _29  and  _30
REMARK   13  A    between atoms: _29  and  _32
REMARK   14  A    between atoms: _32  and  _33
REMARK   15  A    between atoms: _36  and  _38
REMARK   16  A    between atoms: _38  and  _39
REMARK   17  A    between atoms: _38  and  _41
REMARK   18  A    between atoms: _41  and  _42
REMARK   19  A    between atoms: _45  and  _47
REMARK   20  A    between atoms: _47  and  _48
REMARK   21  A    between atoms: _47  and  _50
REMARK   22  A    between atoms: _50  and  _51
REMARK   23  A    between atoms: _54  and  _56
REMARK   24  A    between atoms: _56  and  _57
REMARK   25  A    between atoms: _59  and  _61
REMARK   26  A    between atoms: _61  and  _62
REMARK   27  A    between atoms: _65  and  _67
REMARK   28  A    between atoms: _67  and  _68
REMARK   29  A    between atoms: _67  and  _70
REMARK   30  A    between atoms: _70  and  _71
REMARK   31  A    between atoms: _74  and  _76
REMARK   32  A    between atoms: _76  and  _77
REMARK   33  A    between atoms: _76  and  _79
REMARK   34  A    between atoms: _79  and  _80
REMARK   35  A    between atoms: _83  and  _85
REMARK   36  A    between atoms: _85  and  _86
REMARK   37  A    between atoms: _85  and  _88
REMARK   38  A    between atoms: _88  and  _89
REMARK   39  A    between atoms: _92  and  _94
REMARK   40  A    between atoms: _94  and  _95
REMARK   41  A    between atoms: _94  and  _97
REMARK   42  A    between atoms: _100  and  _102
REMARK   43  A    between atoms: _102  and  _103
REMARK   44  A    between atoms: _102  and  _105
REMARK   45  A    between atoms: _105  and  _106
REMARK   46  A    between atoms: _106  and  _107
REMARK   47  A    between atoms: _107  and  _108
REMARK   48  A    between atoms: _108  and  _109
REMARK   49  A    between atoms: _113  and  _115
REMARK   50  A    between atoms: _115  and  _116
REMARK   51  A    between atoms: _115  and  _118
REMARK   52  A    between atoms: _118  and  _119
REMARK   53  A    between atoms: _119  and  _120
REMARK   54  A    between atoms: _122  and  _124
REMARK   55  A    between atoms: _124  and  _125
REMARK   56  A    between atoms: _124  and  _127
REMARK   57  A    between atoms: _127  and  _128
REMARK   58  A    between atoms: _131  and  _133
REMARK   59  A    between atoms: _133  and  _134
REMARK   60  A    between atoms: _136  and  _138
REMARK   61  A    between atoms: _138  and  _139
REMARK   62  A    between atoms: _141  and  _143
REMARK   63  A    between atoms: _143  and  _144
REMARK   64  A    between atoms: _143  and  _146
REMARK   65  A    between atoms: _146  and  _147
REMARK   66  A    between atoms: _150  and  _152
REMARK   67  A    between atoms: _152  and  _153
REMARK   68  A    between atoms: _155  and  _157
REMARK   69  A    between atoms: _157  and  _158
REMARK   70  A    between atoms: _160  and  _162
REMARK   71  A    between atoms: _162  and  _163
REMARK   72  A    between atoms: _162  and  _165
REMARK   73  A    between atoms: _165  and  _166
REMARK   74  A    between atoms: _172  and  _174
REMARK   75  A    between atoms: _174  and  _175
REMARK   76  A    between atoms: _174  and  _177
REMARK   77  A    between atoms: _177  and  _178
REMARK   78  A    between atoms: _181  and  _183
REMARK   79  A    between atoms: _183  and  _184
REMARK   80  A    between atoms: _183  and  _186
REMARK   81  A    between atoms: _189  and  _191
REMARK   82  A    between atoms: _191  and  _192
REMARK   83  A    between atoms: _191  and  _194
REMARK   84  A    between atoms: _194  and  _195
REMARK   85  A    between atoms: _198  and  _200
REMARK   86  A    between atoms: _200  and  _201
REMARK   87  A    between atoms: _200  and  _203
REMARK   88  A    between atoms: _203  and  _204
REMARK   89  A    between atoms: _208  and  _209
REMARK   90  A    between atoms: _214  and  _216
REMARK   91  A    between atoms: _216  and  _217
REMARK   92  A    between atoms: _216  and  _219
REMARK   93  A    between atoms: _222  and  _224
REMARK   94  A    between atoms: _224  and  _225
REMARK   95  A    between atoms: _224  and  _227
REMARK   96  A    between atoms: _227  and  _228
REMARK   97  A    between atoms: _233  and  _235
REMARK   98  A    between atoms: _235  and  _236
REMARK   99  A    between atoms: _235  and  _238
REMARK  100  A    between atoms: _238  and  _239
REMARK  101  A    between atoms: _242  and  _244
REMARK  102  A    between atoms: _244  and  _245
REMARK  103  A    between atoms: _244  and  _247
REMARK  104  A    between atoms: _247  and  _248
REMARK  105  A    between atoms: _251  and  _253
REMARK  106  A    between atoms: _253  and  _254
REMARK  107  A    between atoms: _256  and  _258
REMARK  108  A    between atoms: _258  and  _259
REMARK  109  A    between atoms: _258  and  _261
REMARK  110  A    between atoms: _261  and  _262
REMARK  111  A    between atoms: _262  and  _263
REMARK  112  A    between atoms: _263  and  _264
REMARK  113  A    between atoms: _273  and  _275
REMARK  114  A    between atoms: _275  and  _276
REMARK  115  A    between atoms: _275  and  _278
REMARK  116  A    between atoms: _278  and  _279
REMARK  117  A    between atoms: _284  and  _286
REMARK  118  A    between atoms: _286  and  _287
REMARK  119  A    between atoms: _286  and  _289
REMARK  120  A    between atoms: _289  and  _290
REMARK  121  A    between atoms: _290  and  _291
REMARK  122  A    between atoms: _291  and  _292
REMARK  123  A    between atoms: _301  and  _303
REMARK  124  A    between atoms: _303  and  _304
REMARK  125  A    between atoms: _303  and  _306
REMARK  126  A    between atoms: _306  and  _307
REMARK  127  A    between atoms: _310  and  _312
REMARK  128  A    between atoms: _312  and  _313
REMARK  129  A    between atoms: _312  and  _315
REMARK  130  A    between atoms: _315  and  _316
REMARK  131  A    between atoms: _319  and  _321
REMARK  132  A    between atoms: _321  and  _322
REMARK  133  A    between atoms: _321  and  _324
REMARK  134  A    between atoms: _324  and  _325
REMARK  135  A    between atoms: _328  and  _330
REMARK  136  A    between atoms: _330  and  _331
REMARK  137  A    between atoms: _330  and  _333
REMARK  138  A    between atoms: _333  and  _334
REMARK  139  A    between atoms: _337  and  _339
REMARK  140  A    between atoms: _339  and  _340
REMARK  141  A    between atoms: _342  and  _344
REMARK  142  A    between atoms: _344  and  _345
REMARK  143  A    between atoms: _348  and  _350
REMARK  144  A    between atoms: _350  and  _351
REMARK  145  A    between atoms: _350  and  _353
REMARK  146  A    between atoms: _353  and  _354
REMARK  147  A    between atoms: _357  and  _359
REMARK  148  A    between atoms: _359  and  _360
REMARK  149  A    between atoms: _359  and  _362
REMARK  150  A    between atoms: _362  and  _363
REMARK  151  A    between atoms: _366  and  _368
REMARK  152  A    between atoms: _368  and  _369
REMARK  153  A    between atoms: _368  and  _371
REMARK  154  A    between atoms: _371  and  _372
REMARK  155  A    between atoms: _375  and  _377
REMARK  156  A    between atoms: _377  and  _378
REMARK  157  A    between atoms: _377  and  _380
REMARK  158  A    between atoms: _383  and  _385
REMARK  159  A    between atoms: _385  and  _386
REMARK  160  A    between atoms: _385  and  _388
REMARK  161  A    between atoms: _388  and  _389
REMARK  162  A    between atoms: _389  and  _390
REMARK  163  A    between atoms: _390  and  _391
REMARK  164  A    between atoms: _391  and  _392
REMARK  165  A    between atoms: _396  and  _398
REMARK  166  A    between atoms: _398  and  _399
REMARK  167  A    between atoms: _398  and  _401
REMARK  168  A    between atoms: _401  and  _402
REMARK  169  A    between atoms: _402  and  _403
REMARK  170  A    between atoms: _405  and  _407
REMARK  171  A    between atoms: _407  and  _408
REMARK  172  A    between atoms: _407  and  _410
REMARK  173  A    between atoms: _410  and  _411
REMARK  174  A    between atoms: _414  and  _416
REMARK  175  A    between atoms: _416  and  _417
REMARK  176  A    between atoms: _419  and  _421
REMARK  177  A    between atoms: _421  and  _422
REMARK  178  A    between atoms: _424  and  _426
REMARK  179  A    between atoms: _426  and  _427
REMARK  180  A    between atoms: _426  and  _429
REMARK  181  A    between atoms: _429  and  _430
REMARK  182  A    between atoms: _433  and  _435
REMARK  183  A    between atoms: _435  and  _436
REMARK  184  A    between atoms: _438  and  _440
REMARK  185  A    between atoms: _440  and  _441
REMARK  186  A    between atoms: _443  and  _445
REMARK  187  A    between atoms: _445  and  _446
REMARK  188  A    between atoms: _445  and  _448
REMARK  189  A    between atoms: _448  and  _449
REMARK  190  A    between atoms: _455  and  _457
REMARK  191  A    between atoms: _457  and  _458
REMARK  192  A    between atoms: _457  and  _460
REMARK  193  A    between atoms: _460  and  _461
REMARK  194  A    between atoms: _464  and  _466
REMARK  195  A    between atoms: _466  and  _467
REMARK  196  A    between atoms: _466  and  _469
REMARK  197  A    between atoms: _469  and  _470
REMARK  198  A    between atoms: _473  and  _475
REMARK  199  A    between atoms: _475  and  _476
REMARK  200  A    between atoms: _475  and  _478
REMARK  201  A    between atoms: _478  and  _479
REMARK  202  A    between atoms: _483  and  _484
REMARK  203  A    between atoms: _489  and  _491
REMARK  204  A    between atoms: _491  and  _492
REMARK  205  A    between atoms: _491  and  _494
REMARK  206  A    between atoms: _497  and  _499
REMARK  207  A    between atoms: _499  and  _500
REMARK  208  A    between atoms: _499  and  _502
REMARK  209  A    between atoms: _502  and  _503
REMARK  210  A    between atoms: _508  and  _510
REMARK  211  A    between atoms: _510  and  _511
REMARK  212  A    between atoms: _510  and  _513
REMARK  213  A    between atoms: _513  and  _514
REMARK  214  A    between atoms: _517  and  _519
REMARK  215  A    between atoms: _519  and  _520
REMARK  216  A    between atoms: _519  and  _522
REMARK  217  A    between atoms: _522  and  _523
REMARK  218  A    between atoms: _526  and  _528
REMARK  219  A    between atoms: _528  and  _529
REMARK  220  A    between atoms: _531  and  _533
REMARK  221  A    between atoms: _533  and  _534
REMARK  222  A    between atoms: _533  and  _536
REMARK  223  A    between atoms: _536  and  _537
REMARK  224  A    between atoms: _537  and  _538
REMARK  225  A    between atoms: _538  and  _539
REMARK  226  A    between atoms: _548  and  _550
REMARK  227  A    between atoms: _550  and  _551
REMARK  228  A    between atoms: _550  and  _553
REMARK  229  A    between atoms: _553  and  _554
REMARK                            x       y       z     vdW  Elec       q    Type
REMARK                         _______ _______ _______ _____ _____    ______ ____
ROOT
ATOM      1  O   HOH     1      28.482  32.089  16.407  0.00  0.00    +0.000 OA
ENDROOT
TORSDOF 0
REMARK  Name = ../refined-set-2016/2i4d/2i4d_pocket.pdb
REMARK  229 active torsions:
REMARK  status: ('A' for Active; 'I' for Inactive)
REMARK    1  A    between atoms: _1  and  _3
REMARK    2  A    between atoms: _3  and  _4
REMARK    3  A    between atoms: _3  and  _6
REMARK    4  A    between atoms: _6  and  _7
REMARK    5  A    between atoms: _7  and  _8
REMARK    6  A    between atoms: _8  and  _9
REMARK    7  A    between atoms: _18  and  _20
REMARK    8  A    between atoms: _20  and  _21
REMARK    9  A    between atoms: _20  and  _23
REMARK   10  A    between atoms: _23  and  _24
REMARK   11  A    between atoms: _27  and  _29
REMARK   12  A    between atoms: _29  and  _30
REMARK   13  A    between atoms: _29  and  _32
REMARK   14  A    between atoms: _32  and  _33
REMARK   15  A    between atoms: _36  and  _38
REMARK   16  A    between atoms: _38  and  _39
REMARK   17  A    between atoms: _38  and  _41
REMARK   18  A    between atoms: _41  and  _42
REMARK   19  A    between atoms: _45  and  _47
REMARK   20  A    between atoms: _47  and  _48
REMARK   21  A    between atoms: _47  and  _50
REMARK   22  A    between atoms: _50  and  _51
REMARK   23  A    between atoms: _54  and  _56
REMARK   24  A    between atoms: _56  and  _57
REMARK   25  A    between atoms: _59  and  _61
REMARK   26  A    between atoms: _61  and  _62
REMARK   27  A    between atoms: _65  and  _67
REMARK   28  A    between atoms: _67  and  _68
REMARK   29  A    between atoms: _67  and  _70
REMARK   30  A    between atoms: _70  and  _71
REMARK   31  A    between atoms: _74  and  _76
REMARK   32  A    between atoms: _76  and  _77
REMARK   33  A    between atoms: _76  and  _79
REMARK   34  A    between atoms: _79  and  _80
REMARK   35  A    between atoms: _83  and  _85
REMARK   36  A    between atoms: _85  and  _86
REMARK   37  A    between atoms: _85  and  _88
REMARK   38  A    between atoms: _88  and  _89
REMARK   39  A    between atoms: _92  and  _94
REMARK   40  A    between atoms: _94  and  _95
REMARK   41  A    between atoms: _94  and  _97
REMARK   42  A    between atoms: _100  and  _102
REMARK   43  A    between atoms: _102  and  _103
REMARK   44  A    between atoms: _102  and  _105
REMARK   45  A    between atoms: _105  and  _106
REMARK   46  A    between atoms: _106  and  _107
REMARK   47  A    between atoms: _107  and  _108
REMARK   48  A    between atoms: _108  and  _109
REMARK   49  A    between atoms: _113  and  _115
REMARK   50  A    between atoms: _115  and  _116
REMARK   51  A    between atoms: _115  and  _118
REMARK   52  A    between atoms: _118  and  _119
REMARK   53  A    between atoms: _119  and  _120
REMARK   54  A    between atoms: _122  and  _124
REMARK   55  A    between atoms: _124  and  _125
REMARK   56  A    between atoms: _124  and  _127
REMARK   57  A    between atoms: _127  and  _128
REMARK   58  A    between atoms: _131  and  _133
REMARK   59  A    between atoms: _133  and  _134
REMARK   60  A    between atoms: _136  and  _138
REMARK   61  A    between atoms: _138  and  _139
REMARK   62  A    between atoms: _141  and  _143
REMARK   63  A    between atoms: _143  and  _144
REMARK   64  A    between atoms: _143  and  _146
REMARK   65  A    between atoms: _146  and  _147
REMARK   66  A    between atoms: _150  and  _152
REMARK   67  A    between atoms: _152  and  _153
REMARK   68  A    between atoms: _155  and  _157
REMARK   69  A    between atoms: _157  and  _158
REMARK   70  A    between atoms: _160  and  _162
REMARK   71  A    between atoms: _162  and  _163
REMARK   72  A    between atoms: _162  and  _165
REMARK   73  A    between atoms: _165  and  _166
REMARK   74  A    between atoms: _172  and  _174
REMARK   75  A    between atoms: _174  and  _175
REMARK   76  A    between atoms: _174  and  _177
REMARK   77  A    between atoms: _177  and  _178
REMARK   78  A    between atoms: _181  and  _183
REMARK   79  A    between atoms: _183  and  _184
REMARK   80  A    between atoms: _183  and  _186
REMARK   81  A    between atoms: _189  and  _191
REMARK   82  A    between atoms: _191  and  _192
REMARK   83  A    between atoms: _191  and  _194
REMARK   84  A    between atoms: _194  and  _195
REMARK   85  A    between atoms: _198  and  _200
REMARK   86  A    between atoms: _200  and  _201
REMARK   87  A    between atoms: _200  and  _203
REMARK   88  A    between atoms: _203  and  _204
REMARK   89  A    between atoms: _208  and  _209
REMARK   90  A    between atoms: _214  and  _216
REMARK   91  A    between atoms: _216  and  _217
REMARK   92  A    between atoms: _216  and  _219
REMARK   93  A    between atoms: _222  and  _224
REMARK   94  A    between atoms: _224  and  _225
REMARK   95  A    between atoms: _224  and  _227
REMARK   96  A    between atoms: _227  and  _228
REMARK   97  A    between atoms: _233  and  _235
REMARK   98  A    between atoms: _235  and  _236
REMARK   99  A    between atoms: _235  and  _238
REMARK  100  A    between atoms: _238  and  _239
REMARK  101  A    between atoms: _242  and  _244
REMARK  102  A    between atoms: _244  and  _245
REMARK  103  A    between atoms: _244  and  _247
REMARK  104  A    between atoms: _247  and  _248
REMARK  105  A    between atoms: _251  and  _253
REMARK  106  A    between atoms: _253  and  _254
REMARK  107  A    between atoms: _256  and  _258
REMARK  108  A    between atoms: _258  and  _259
REMARK  109  A    between atoms: _258  and  _261
REMARK  110  A    between atoms: _261  and  _262
REMARK  111  A    between atoms: _262  and  _263
REMARK  112  A    between atoms: _263  and  _264
REMARK  113  A    between atoms: _273  and  _275
REMARK  114  A    between atoms: _275  and  _276
REMARK  115  A    between atoms: _275  and  _278
REMARK  116  A    between atoms: _278  and  _279
REMARK  117  A    between atoms: _284  and  _286
REMARK  118  A    between atoms: _286  and  _287
REMARK  119  A    between atoms: _286  and  _289
REMARK  120  A    between atoms: _289  and  _290
REMARK  121  A    between atoms: _290  and  _291
REMARK  122  A    between atoms: _291  and  _292
REMARK  123  A    between atoms: _301  and  _303
REMARK  124  A    between atoms: _303  and  _304
REMARK  125  A    between atoms: _303  and  _306
REMARK  126  A    between atoms: _306  and  _307
REMARK  127  A    between atoms: _310  and  _312
REMARK  128  A    between atoms: _312  and  _313
REMARK  129  A    between atoms: _312  and  _315
REMARK  130  A    between atoms: _315  and  _316
REMARK  131  A    between atoms: _319  and  _321
REMARK  132  A    between atoms: _321  and  _322
REMARK  133  A    between atoms: _321  and  _324
REMARK  134  A    between atoms: _324  and  _325
REMARK  135  A    between atoms: _328  and  _330
REMARK  136  A    between atoms: _330  and  _331
REMARK  137  A    between atoms: _330  and  _333
REMARK  138  A    between atoms: _333  and  _334
REMARK  139  A    between atoms: _337  and  _339
REMARK  140  A    between atoms: _339  and  _340
REMARK  141  A    between atoms: _342  and  _344
REMARK  142  A    between atoms: _344  and  _345
REMARK  143  A    between atoms: _348  and  _350
REMARK  144  A    between atoms: _350  and  _351
REMARK  145  A    between atoms: _350  and  _353
REMARK  146  A    between atoms: _353  and  _354
REMARK  147  A    between atoms: _357  and  _359
REMARK  148  A    between atoms: _359  and  _360
REMARK  149  A    between atoms: _359  and  _362
REMARK  150  A    between atoms: _362  and  _363
REMARK  151  A    between atoms: _366  and  _368
REMARK  152  A    between atoms: _368  and  _369
REMARK  153  A    between atoms: _368  and  _371
REMARK  154  A    between atoms: _371  and  _372
REMARK  155  A    between atoms: _375  and  _377
REMARK  156  A    between atoms: _377  and  _378
REMARK  157  A    between atoms: _377  and  _380
REMARK  158  A    between atoms: _383  and  _385
REMARK  159  A    between atoms: _385  and  _386
REMARK  160  A    between atoms: _385  and  _388
REMARK  161  A    between atoms: _388  and  _389
REMARK  162  A    between atoms: _389  and  _390
REMARK  163  A    between atoms: _390  and  _391
REMARK  164  A    between atoms: _391  and  _392
REMARK  165  A    between atoms: _396  and  _398
REMARK  166  A    between atoms: _398  and  _399
REMARK  167  A    between atoms: _398  and  _401
REMARK  168  A    between atoms: _401  and  _402
REMARK  169  A    between atoms: _402  and  _403
REMARK  170  A    between atoms: _405  and  _407
REMARK  171  A    between atoms: _407  and  _408
REMARK  172  A    between atoms: _407  and  _410
REMARK  173  A    between atoms: _410  and  _411
REMARK  174  A    between atoms: _414  and  _416
REMARK  175  A    between atoms: _416  and  _417
REMARK  176  A    between atoms: _419  and  _421
REMARK  177  A    between atoms: _421  and  _422
REMARK  178  A    between atoms: _424  and  _426
REMARK  179  A    between atoms: _426  and  _427
REMARK  180  A    between atoms: _426  and  _429
REMARK  181  A    between atoms: _429  and  _430
REMARK  182  A    between atoms: _433  and  _435
REMARK  183  A    between atoms: _435  and  _436
REMARK  184  A    between atoms: _438  and  _440
REMARK  185  A    between atoms: _440  and  _441
REMARK  186  A    between atoms: _443  and  _445
REMARK  187  A    between atoms: _445  and  _446
REMARK  188  A    between atoms: _445  and  _448
REMARK  189  A    between atoms: _448  and  _449
REMARK  190  A    between atoms: _455  and  _457
REMARK  191  A    between atoms: _457  and  _458
REMARK  192  A    between atoms: _457  and  _460
REMARK  193  A    between atoms: _460  and  _461
REMARK  194  A    between atoms: _464  and  _466
REMARK  195  A    between atoms: _466  and  _467
REMARK  196  A    between atoms: _466  and  _469
REMARK  197  A    between atoms: _469  and  _470
REMARK  198  A    between atoms: _473  and  _475
REMARK  199  A    between atoms: _475  and  _476
REMARK  200  A    between atoms: _475  and  _478
REMARK  201  A    between atoms: _478  and  _479
REMARK  202  A    between atoms: _483  and  _484
REMARK  203  A    between atoms: _489  and  _491
REMARK  204  A    between atoms: _491  and  _492
REMARK  205  A    between atoms: _491  and  _494
REMARK  206  A    between atoms: _497  and  _499
REMARK  207  A    between atoms: _499  and  _500
REMARK  208  A    between atoms: _499  and  _502
REMARK  209  A    between atoms: _502  and  _503
REMARK  210  A    between atoms: _508  and  _510
REMARK  211  A    between atoms: _510  and  _511
REMARK  212  A    between atoms: _510  and  _513
REMARK  213  A    between atoms: _513  and  _514
REMARK  214  A    between atoms: _517  and  _519
REMARK  215  A    between atoms: _519  and  _520
REMARK  216  A    between atoms: _519  and  _522
REMARK  217  A    between atoms: _522  and  _523
REMARK  218  A    between atoms: _526  and  _528
REMARK  219  A    between atoms: _528  and  _529
REMARK  220  A    between atoms: _531  and  _533
REMARK  221  A    between atoms: _533  and  _534
REMARK  222  A    between atoms: _533  and  _536
REMARK  223  A    between atoms: _536  and  _537
REMARK  224  A    between atoms: _537  and  _538
REMARK  225  A    between atoms: _538  and  _539
REMARK  226  A    between atoms: _548  and  _550
REMARK  227  A    between atoms: _550  and  _551
REMARK  228  A    between atoms: _550  and  _553
REMARK  229  A    between atoms: _553  and  _554
REMARK                            x       y       z     vdW  Elec       q    Type
REMARK                         _______ _______ _______ _____ _____    ______ ____
ROOT
ATOM      1  O   HOH     1      11.608  17.679   5.428  0.00  0.00    +0.000 OA
ENDROOT
TORSDOF 0
REMARK  Name = ../refined-set-2016/2i4d/2i4d_pocket.pdb
REMARK  229 active torsions:
REMARK  status: ('A' for Active; 'I' for Inactive)
REMARK    1  A    between atoms: _1  and  _3
REMARK    2  A    between atoms: _3  and  _4
REMARK    3  A    between atoms: _3  and  _6
REMARK    4  A    between atoms: _6  and  _7
REMARK    5  A    between atoms: _7  and  _8
REMARK    6  A    between atoms: _8  and  _9
REMARK    7  A    between atoms: _18  and  _20
REMARK    8  A    between atoms: _20  and  _21
REMARK    9  A    between atoms: _20  and  _23
REMARK   10  A    between atoms: _23  and  _24
REMARK   11  A    between atoms: _27  and  _29
REMARK   12  A    between atoms: _29  and  _30
REMARK   13  A    between atoms: _29  and  _32
REMARK   14  A    between atoms: _32  and  _33
REMARK   15  A    between atoms: _36  and  _38
REMARK   16  A    between atoms: _38  and  _39
REMARK   17  A    between atoms: _38  and  _41
REMARK   18  A    between atoms: _41  and  _42
REMARK   19  A    between atoms: _45  and  _47
REMARK   20  A    between atoms: _47  and  _48
REMARK   21  A    between atoms: _47  and  _50
REMARK   22  A    between atoms: _50  and  _51
REMARK   23  A    between atoms: _54  and  _56
REMARK   24  A    between atoms: _56  and  _57
REMARK   25  A    between atoms: _59  and  _61
REMARK   26  A    between atoms: _61  and  _62
REMARK   27  A    between atoms: _65  and  _67
REMARK   28  A    between atoms: _67  and  _68
REMARK   29  A    between atoms: _67  and  _70
REMARK   30  A    between atoms: _70  and  _71
REMARK   31  A    between atoms: _74  and  _76
REMARK   32  A    between atoms: _76  and  _77
REMARK   33  A    between atoms: _76  and  _79
REMARK   34  A    between atoms: _79  and  _80
REMARK   35  A    between atoms: _83  and  _85
REMARK   36  A    between atoms: _85  and  _86
REMARK   37  A    between atoms: _85  and  _88
REMARK   38  A    between atoms: _88  and  _89
REMARK   39  A    between atoms: _92  and  _94
REMARK   40  A    between atoms: _94  and  _95
REMARK   41  A    between atoms: _94  and  _97
REMARK   42  A    between atoms: _100  and  _102
REMARK   43  A    between atoms: _102  and  _103
REMARK   44  A    between atoms: _102  and  _105
REMARK   45  A    between atoms: _105  and  _106
REMARK   46  A    between atoms: _106  and  _107
REMARK   47  A    between atoms: _107  and  _108
REMARK   48  A    between atoms: _108  and  _109
REMARK   49  A    between atoms: _113  and  _115
REMARK   50  A    between atoms: _115  and  _116
REMARK   51  A    between atoms: _115  and  _118
REMARK   52  A    between atoms: _118  and  _119
REMARK   53  A    between atoms: _119  and  _120
REMARK   54  A    between atoms: _122  and  _124
REMARK   55  A    between atoms: _124  and  _125
REMARK   56  A    between atoms: _124  and  _127
REMARK   57  A    between atoms: _127  and  _128
REMARK   58  A    between atoms: _131  and  _133
REMARK   59  A    between atoms: _133  and  _134
REMARK   60  A    between atoms: _136  and  _138
REMARK   61  A    between atoms: _138  and  _139
REMARK   62  A    between atoms: _141  and  _143
REMARK   63  A    between atoms: _143  and  _144
REMARK   64  A    between atoms: _143  and  _146
REMARK   65  A    between atoms: _146  and  _147
REMARK   66  A    between atoms: _150  and  _152
REMARK   67  A    between atoms: _152  and  _153
REMARK   68  A    between atoms: _155  and  _157
REMARK   69  A    between atoms: _157  and  _158
REMARK   70  A    between atoms: _160  and  _162
REMARK   71  A    between atoms: _162  and  _163
REMARK   72  A    between atoms: _162  and  _165
REMARK   73  A    between atoms: _165  and  _166
REMARK   74  A    between atoms: _172  and  _174
REMARK   75  A    between atoms: _174  and  _175
REMARK   76  A    between atoms: _174  and  _177
REMARK   77  A    between atoms: _177  and  _178
REMARK   78  A    between atoms: _181  and  _183
REMARK   79  A    between atoms: _183  and  _184
REMARK   80  A    between atoms: _183  and  _186
REMARK   81  A    between atoms: _189  and  _191
REMARK   82  A    between atoms: _191  and  _192
REMARK   83  A    between atoms: _191  and  _194
REMARK   84  A    between atoms: _194  and  _195
REMARK   85  A    between atoms: _198  and  _200
REMARK   86  A    between atoms: _200  and  _201
REMARK   87  A    between atoms: _200  and  _203
REMARK   88  A    between atoms: _203  and  _204
REMARK   89  A    between atoms: _208  and  _209
REMARK   90  A    between atoms: _214  and  _216
REMARK   91  A    between atoms: _216  and  _217
REMARK   92  A    between atoms: _216  and  _219
REMARK   93  A    between atoms: _222  and  _224
REMARK   94  A    between atoms: _224  and  _225
REMARK   95  A    between atoms: _224  and  _227
REMARK   96  A    between atoms: _227  and  _228
REMARK   97  A    between atoms: _233  and  _235
REMARK   98  A    between atoms: _235  and  _236
REMARK   99  A    between atoms: _235  and  _238
REMARK  100  A    between atoms: _238  and  _239
REMARK  101  A    between atoms: _242  and  _244
REMARK  102  A    between atoms: _244  and  _245
REMARK  103  A    between atoms: _244  and  _247
REMARK  104  A    between atoms: _247  and  _248
REMARK  105  A    between atoms: _251  and  _253
REMARK  106  A    between atoms: _253  and  _254
REMARK  107  A    between atoms: _256  and  _258
REMARK  108  A    between atoms: _258  and  _259
REMARK  109  A    between atoms: _258  and  _261
REMARK  110  A    between atoms: _261  and  _262
REMARK  111  A    between atoms: _262  and  _263
REMARK  112  A    between atoms: _263  and  _264
REMARK  113  A    between atoms: _273  and  _275
REMARK  114  A    between atoms: _275  and  _276
REMARK  115  A    between atoms: _275  and  _278
REMARK  116  A    between atoms: _278  and  _279
REMARK  117  A    between atoms: _284  and  _286
REMARK  118  A    between atoms: _286  and  _287
REMARK  119  A    between atoms: _286  and  _289
REMARK  120  A    between atoms: _289  and  _290
REMARK  121  A    between atoms: _290  and  _291
REMARK  122  A    between atoms: _291  and  _292
REMARK  123  A    between atoms: _301  and  _303
REMARK  124  A    between atoms: _303  and  _304
REMARK  125  A    between atoms: _303  and  _306
REMARK  126  A    between atoms: _306  and  _307
REMARK  127  A    between atoms: _310  and  _312
REMARK  128  A    between atoms: _312  and  _313
REMARK  129  A    between atoms: _312  and  _315
REMARK  130  A    between atoms: _315  and  _316
REMARK  131  A    between atoms: _319  and  _321
REMARK  132  A    between atoms: _321  and  _322
REMARK  133  A    between atoms: _321  and  _324
REMARK  134  A    between atoms: _324  and  _325
REMARK  135  A    between atoms: _328  and  _330
REMARK  136  A    between atoms: _330  and  _331
REMARK  137  A    between atoms: _330  and  _333
REMARK  138  A    between atoms: _333  and  _334
REMARK  139  A    between atoms: _337  and  _339
REMARK  140  A    between atoms: _339  and  _340
REMARK  141  A    between atoms: _342  and  _344
REMARK  142  A    between atoms: _344  and  _345
REMARK  143  A    between atoms: _348  and  _350
REMARK  144  A    between atoms: _350  and  _351
REMARK  145  A    between atoms: _350  and  _353
REMARK  146  A    between atoms: _353  and  _354
REMARK  147  A    between atoms: _357  and  _359
REMARK  148  A    between atoms: _359  and  _360
REMARK  149  A    between atoms: _359  and  _362
REMARK  150  A    between atoms: _362  and  _363
REMARK  151  A    between atoms: _366  and  _368
REMARK  152  A    between atoms: _368  and  _369
REMARK  153  A    between atoms: _368  and  _371
REMARK  154  A    between atoms: _371  and  _372
REMARK  155  A    between atoms: _375  and  _377
REMARK  156  A    between atoms: _377  and  _378
REMARK  157  A    between atoms: _377  and  _380
REMARK  158  A    between atoms: _383  and  _385
REMARK  159  A    between atoms: _385  and  _386
REMARK  160  A    between atoms: _385  and  _388
REMARK  161  A    between atoms: _388  and  _389
REMARK  162  A    between atoms: _389  and  _390
REMARK  163  A    between atoms: _390  and  _391
REMARK  164  A    between atoms: _391  and  _392
REMARK  165  A    between atoms: _396  and  _398
REMARK  166  A    between atoms: _398  and  _399
REMARK  167  A    between atoms: _398  and  _401
REMARK  168  A    between atoms: _401  and  _402
REMARK  169  A    between atoms: _402  and  _403
REMARK  170  A    between atoms: _405  and  _407
REMARK  171  A    between atoms: _407  and  _408
REMARK  172  A    between atoms: _407  and  _410
REMARK  173  A    between atoms: _410  and  _411
REMARK  174  A    between atoms: _414  and  _416
REMARK  175  A    between atoms: _416  and  _417
REMARK  176  A    between atoms: _419  and  _421
REMARK  177  A    between atoms: _421  and  _422
REMARK  178  A    between atoms: _424  and  _426
REMARK  179  A    between atoms: _426  and  _427
REMARK  180  A    between atoms: _426  and  _429
REMARK  181  A    between atoms: _429  and  _430
REMARK  182  A    between atoms: _433  and  _435
REMARK  183  A    between atoms: _435  and  _436
REMARK  184  A    between atoms: _438  and  _440
REMARK  185  A    between atoms: _440  and  _441
REMARK  186  A    between atoms: _443  and  _445
REMARK  187  A    between atoms: _445  and  _446
REMARK  188  A    between atoms: _445  and  _448
REMARK  189  A    between atoms: _448  and  _449
REMARK  190  A    between atoms: _455  and  _457
REMARK  191  A    between atoms: _457  and  _458
REMARK  192  A    between atoms: _457  and  _460
REMARK  193  A    between atoms: _460  and  _461
REMARK  194  A    between atoms: _464  and  _466
REMARK  195  A    between atoms: _466  and  _467
REMARK  196  A    between atoms: _466  and  _469
REMARK  197  A    between atoms: _469  and  _470
REMARK  198  A    between atoms: _473  and  _475
REMARK  199  A    between atoms: _475  and  _476
REMARK  200  A    between atoms: _475  and  _478
REMARK  201  A    between atoms: _478  and  _479
REMARK  202  A    between atoms: _483  and  _484
REMARK  203  A    between atoms: _489  and  _491
REMARK  204  A    between atoms: _491  and  _492
REMARK  205  A    between atoms: _491  and  _494
REMARK  206  A    between atoms: _497  and  _499
REMARK  207  A    between atoms: _499  and  _500
REMARK  208  A    between atoms: _499  and  _502
REMARK  209  A    between atoms: _502  and  _503
REMARK  210  A    between atoms: _508  and  _510
REMARK  211  A    between atoms: _510  and  _511
REMARK  212  A    between atoms: _510  and  _513
REMARK  213  A    between atoms: _513  and  _514
REMARK  214  A    between atoms: _517  and  _519
REMARK  215  A    between atoms: _519  and  _520
REMARK  216  A    between atoms: _519  and  _522
REMARK  217  A    between atoms: _522  and  _523
REMARK  218  A    between atoms: _526  and  _528
REMARK  219  A    between atoms: _528  and  _529
REMARK  220  A    between atoms: _531  and  _533
REMARK  221  A    between atoms: _533  and  _534
REMARK  222  A    between atoms: _533  and  _536
REMARK  223  A    between atoms: _536  and  _537
REMARK  224  A    between atoms: _537  and  _538
REMARK  225  A    between atoms: _538  and  _539
REMARK  226  A    between atoms: _548  and  _550
REMARK  227  A    between atoms: _550  and  _551
REMARK  228  A    between atoms: _550  and  _553
REMARK  229  A    between atoms: _553  and  _554
REMARK                            x       y       z     vdW  Elec       q    Type
REMARK                         _______ _______ _______ _____ _____    ______ ____
ROOT
ATOM      1  O   HOH     1       6.741  24.312  18.134  0.00  0.00    +0.000 OA
ENDROOT
TORSDOF 0
REMARK  Name = ../refined-set-2016/2i4d/2i4d_pocket.pdb
REMARK  229 active torsions:
REMARK  status: ('A' for Active; 'I' for Inactive)
REMARK    1  A    between atoms: _1  and  _3
REMARK    2  A    between atoms: _3  and  _4
REMARK    3  A    between atoms: _3  and  _6
REMARK    4  A    between atoms: _6  and  _7
REMARK    5  A    between atoms: _7  and  _8
REMARK    6  A    between atoms: _8  and  _9
REMARK    7  A    between atoms: _18  and  _20
REMARK    8  A    between atoms: _20  and  _21
REMARK    9  A    between atoms: _20  and  _23
REMARK   10  A    between atoms: _23  and  _24
REMARK   11  A    between atoms: _27  and  _29
REMARK   12  A    between atoms: _29  and  _30
REMARK   13  A    between atoms: _29  and  _32
REMARK   14  A    between atoms: _32  and  _33
REMARK   15  A    between atoms: _36  and  _38
REMARK   16  A    between atoms: _38  and  _39
REMARK   17  A    between atoms: _38  and  _41
REMARK   18  A    between atoms: _41  and  _42
REMARK   19  A    between atoms: _45  and  _47
REMARK   20  A    between atoms: _47  and  _48
REMARK   21  A    between atoms: _47  and  _50
REMARK   22  A    between atoms: _50  and  _51
REMARK   23  A    between atoms: _54  and  _56
REMARK   24  A    between atoms: _56  and  _57
REMARK   25  A    between atoms: _59  and  _61
REMARK   26  A    between atoms: _61  and  _62
REMARK   27  A    between atoms: _65  and  _67
REMARK   28  A    between atoms: _67  and  _68
REMARK   29  A    between atoms: _67  and  _70
REMARK   30  A    between atoms: _70  and  _71
REMARK   31  A    between atoms: _74  and  _76
REMARK   32  A    between atoms: _76  and  _77
REMARK   33  A    between atoms: _76  and  _79
REMARK   34  A    between atoms: _79  and  _80
REMARK   35  A    between atoms: _83  and  _85
REMARK   36  A    between atoms: _85  and  _86
REMARK   37  A    between atoms: _85  and  _88
REMARK   38  A    between atoms: _88  and  _89
REMARK   39  A    between atoms: _92  and  _94
REMARK   40  A    between atoms: _94  and  _95
REMARK   41  A    between atoms: _94  and  _97
REMARK   42  A    between atoms: _100  and  _102
REMARK   43  A    between atoms: _102  and  _103
REMARK   44  A    between atoms: _102  and  _105
REMARK   45  A    between atoms: _105  and  _106
REMARK   46  A    between atoms: _106  and  _107
REMARK   47  A    between atoms: _107  and  _108
REMARK   48  A    between atoms: _108  and  _109
REMARK   49  A    between atoms: _113  and  _115
REMARK   50  A    between atoms: _115  and  _116
REMARK   51  A    between atoms: _115  and  _118
REMARK   52  A    between atoms: _118  and  _119
REMARK   53  A    between atoms: _119  and  _120
REMARK   54  A    between atoms: _122  and  _124
REMARK   55  A    between atoms: _124  and  _125
REMARK   56  A    between atoms: _124  and  _127
REMARK   57  A    between atoms: _127  and  _128
REMARK   58  A    between atoms: _131  and  _133
REMARK   59  A    between atoms: _133  and  _134
REMARK   60  A    between atoms: _136  and  _138
REMARK   61  A    between atoms: _138  and  _139
REMARK   62  A    between atoms: _141  and  _143
REMARK   63  A    between atoms: _143  and  _144
REMARK   64  A    between atoms: _143  and  _146
REMARK   65  A    between atoms: _146  and  _147
REMARK   66  A    between atoms: _150  and  _152
REMARK   67  A    between atoms: _152  and  _153
REMARK   68  A    between atoms: _155  and  _157
REMARK   69  A    between atoms: _157  and  _158
REMARK   70  A    between atoms: _160  and  _162
REMARK   71  A    between atoms: _162  and  _163
REMARK   72  A    between atoms: _162  and  _165
REMARK   73  A    between atoms: _165  and  _166
REMARK   74  A    between atoms: _172  and  _174
REMARK   75  A    between atoms: _174  and  _175
REMARK   76  A    between atoms: _174  and  _177
REMARK   77  A    between atoms: _177  and  _178
REMARK   78  A    between atoms: _181  and  _183
REMARK   79  A    between atoms: _183  and  _184
REMARK   80  A    between atoms: _183  and  _186
REMARK   81  A    between atoms: _189  and  _191
REMARK   82  A    between atoms: _191  and  _192
REMARK   83  A    between atoms: _191  and  _194
REMARK   84  A    between atoms: _194  and  _195
REMARK   85  A    between atoms: _198  and  _200
REMARK   86  A    between atoms: _200  and  _201
REMARK   87  A    between atoms: _200  and  _203
REMARK   88  A    between atoms: _203  and  _204
REMARK   89  A    between atoms: _208  and  _209
REMARK   90  A    between atoms: _214  and  _216
REMARK   91  A    between atoms: _216  and  _217
REMARK   92  A    between atoms: _216  and  _219
REMARK   93  A    between atoms: _222  and  _224
REMARK   94  A    between atoms: _224  and  _225
REMARK   95  A    between atoms: _224  and  _227
REMARK   96  A    between atoms: _227  and  _228
REMARK   97  A    between atoms: _233  and  _235
REMARK   98  A    between atoms: _235  and  _236
REMARK   99  A    between atoms: _235  and  _238
REMARK  100  A    between atoms: _238  and  _239
REMARK  101  A    between atoms: _242  and  _244
REMARK  102  A    between atoms: _244  and  _245
REMARK  103  A    between atoms: _244  and  _247
REMARK  104  A    between atoms: _247  and  _248
REMARK  105  A    between atoms: _251  and  _253
REMARK  106  A    between atoms: _253  and  _254
REMARK  107  A    between atoms: _256  and  _258
REMARK  108  A    between atoms: _258  and  _259
REMARK  109  A    between atoms: _258  and  _261
REMARK  110  A    between atoms: _261  and  _262
REMARK  111  A    between atoms: _262  and  _263
REMARK  112  A    between atoms: _263  and  _264
REMARK  113  A    between atoms: _273  and  _275
REMARK  114  A    between atoms: _275  and  _276
REMARK  115  A    between atoms: _275  and  _278
REMARK  116  A    between atoms: _278  and  _279
REMARK  117  A    between atoms: _284  and  _286
REMARK  118  A    between atoms: _286  and  _287
REMARK  119  A    between atoms: _286  and  _289
REMARK  120  A    between atoms: _289  and  _290
REMARK  121  A    between atoms: _290  and  _291
REMARK  122  A    between atoms: _291  and  _292
REMARK  123  A    between atoms: _301  and  _303
REMARK  124  A    between atoms: _303  and  _304
REMARK  125  A    between atoms: _303  and  _306
REMARK  126  A    between atoms: _306  and  _307
REMARK  127  A    between atoms: _310  and  _312
REMARK  128  A    between atoms: _312  and  _313
REMARK  129  A    between atoms: _312  and  _315
REMARK  130  A    between atoms: _315  and  _316
REMARK  131  A    between atoms: _319  and  _321
REMARK  132  A    between atoms: _321  and  _322
REMARK  133  A    between atoms: _321  and  _324
REMARK  134  A    between atoms: _324  and  _325
REMARK  135  A    between atoms: _328  and  _330
REMARK  136  A    between atoms: _330  and  _331
REMARK  137  A    between atoms: _330  and  _333
REMARK  138  A    between atoms: _333  and  _334
REMARK  139  A    between atoms: _337  and  _339
REMARK  140  A    between atoms: _339  and  _340
REMARK  141  A    between atoms: _342  and  _344
REMARK  142  A    between atoms: _344  and  _345
REMARK  143  A    between atoms: _348  and  _350
REMARK  144  A    between atoms: _350  and  _351
REMARK  145  A    between atoms: _350  and  _353
REMARK  146  A    between atoms: _353  and  _354
REMARK  147  A    between atoms: _357  and  _359
REMARK  148  A    between atoms: _359  and  _360
REMARK  149  A    between atoms: _359  and  _362
REMARK  150  A    between atoms: _362  and  _363
REMARK  151  A    between atoms: _366  and  _368
REMARK  152  A    between atoms: _368  and  _369
REMARK  153  A    between atoms: _368  and  _371
REMARK  154  A    between atoms: _371  and  _372
REMARK  155  A    between atoms: _375  and  _377
REMARK  156  A    between atoms: _377  and  _378
REMARK  157  A    between atoms: _377  and  _380
REMARK  158  A    between atoms: _383  and  _385
REMARK  159  A    between atoms: _385  and  _386
REMARK  160  A    between atoms: _385  and  _388
REMARK  161  A    between atoms: _388  and  _389
REMARK  162  A    between atoms: _389  and  _390
REMARK  163  A    between atoms: _390  and  _391
REMARK  164  A    between atoms: _391  and  _392
REMARK  165  A    between atoms: _396  and  _398
REMARK  166  A    between atoms: _398  and  _399
REMARK  167  A    between atoms: _398  and  _401
REMARK  168  A    between atoms: _401  and  _402
REMARK  169  A    between atoms: _402  and  _403
REMARK  170  A    between atoms: _405  and  _407
REMARK  171  A    between atoms: _407  and  _408
REMARK  172  A    between atoms: _407  and  _410
REMARK  173  A    between atoms: _410  and  _411
REMARK  174  A    between atoms: _414  and  _416
REMARK  175  A    between atoms: _416  and  _417
REMARK  176  A    between atoms: _419  and  _421
REMARK  177  A    between atoms: _421  and  _422
REMARK  178  A    between atoms: _424  and  _426
REMARK  179  A    between atoms: _426  and  _427
REMARK  180  A    between atoms: _426  and  _429
REMARK  181  A    between atoms: _429  and  _430
REMARK  182  A    between atoms: _433  and  _435
REMARK  183  A    between atoms: _435  and  _436
REMARK  184  A    between atoms: _438  and  _440
REMARK  185  A    between atoms: _440  and  _441
REMARK  186  A    between atoms: _443  and  _445
REMARK  187  A    between atoms: _445  and  _446
REMARK  188  A    between atoms: _445  and  _448
REMARK  189  A    between atoms: _448  and  _449
REMARK  190  A    between atoms: _455  and  _457
REMARK  191  A    between atoms: _457  and  _458
REMARK  192  A    between atoms: _457  and  _460
REMARK  193  A    between atoms: _460  and  _461
REMARK  194  A    between atoms: _464  and  _466
REMARK  195  A    between atoms: _466  and  _467
REMARK  196  A    between atoms: _466  and  _469
REMARK  197  A    between atoms: _469  and  _470
REMARK  198  A    between atoms: _473  and  _475
REMARK  199  A    between atoms: _475  and  _476
REMARK  200  A    between atoms: _475  and  _478
REMARK  201  A    between atoms: _478  and  _479
REMARK  202  A    between atoms: _483  and  _484
REMARK  203  A    between atoms: _489  and  _491
REMARK  204  A    between atoms: _491  and  _492
REMARK  205  A    between atoms: _491  and  _494
REMARK  206  A    between atoms: _497  and  _499
REMARK  207  A    between atoms: _499  and  _500
REMARK  208  A    between atoms: _499  and  _502
REMARK  209  A    between atoms: _502  and  _503
REMARK  210  A    between atoms: _508  and  _510
REMARK  211  A    between atoms: _510  and  _511
REMARK  212  A    between atoms: _510  and  _513
REMARK  213  A    between atoms: _513  and  _514
REMARK  214  A    between atoms: _517  and  _519
REMARK  215  A    between atoms: _519  and  _520
REMARK  216  A    between atoms: _519  and  _522
REMARK  217  A    between atoms: _522  and  _523
REMARK  218  A    between atoms: _526  and  _528
REMARK  219  A    between atoms: _528  and  _529
REMARK  220  A    between atoms: _531  and  _533
REMARK  221  A    between atoms: _533  and  _534
REMARK  222  A    between atoms: _533  and  _536
REMARK  223  A    between atoms: _536  and  _537
REMARK  224  A    between atoms: _537  and  _538
REMARK  225  A    between atoms: _538  and  _539
REMARK  226  A    between atoms: _548  and  _550
REMARK  227  A    between atoms: _550  and  _551
REMARK  228  A    between atoms: _550  and  _553
REMARK  229  A    between atoms: _553  and  _554
REMARK                            x       y       z     vdW  Elec       q    Type
REMARK                         _______ _______ _______ _____ _____    ______ ____
ROOT
ATOM      1  O   HOH     1       8.182  22.233  16.923  0.00  0.00    +0.000 OA
ENDROOT
TORSDOF 0
REMARK  Name = ../refined-set-2016/2i4d/2i4d_pocket.pdb
REMARK  229 active torsions:
REMARK  status: ('A' for Active; 'I' for Inactive)
REMARK    1  A    between atoms: _1  and  _3
REMARK    2  A    between atoms: _3  and  _4
REMARK    3  A    between atoms: _3  and  _6
REMARK    4  A    between atoms: _6  and  _7
REMARK    5  A    between atoms: _7  and  _8
REMARK    6  A    between atoms: _8  and  _9
REMARK    7  A    between atoms: _18  and  _20
REMARK    8  A    between atoms: _20  and  _21
REMARK    9  A    between atoms: _20  and  _23
REMARK   10  A    between atoms: _23  and  _24
REMARK   11  A    between atoms: _27  and  _29
REMARK   12  A    between atoms: _29  and  _30
REMARK   13  A    between atoms: _29  and  _32
REMARK   14  A    between atoms: _32  and  _33
REMARK   15  A    between atoms: _36  and  _38
REMARK   16  A    between atoms: _38  and  _39
REMARK   17  A    between atoms: _38  and  _41
REMARK   18  A    between atoms: _41  and  _42
REMARK   19  A    between atoms: _45  and  _47
REMARK   20  A    between atoms: _47  and  _48
REMARK   21  A    between atoms: _47  and  _50
REMARK   22  A    between atoms: _50  and  _51
REMARK   23  A    between atoms: _54  and  _56
REMARK   24  A    between atoms: _56  and  _57
REMARK   25  A    between atoms: _59  and  _61
REMARK   26  A    between atoms: _61  and  _62
REMARK   27  A    between atoms: _65  and  _67
REMARK   28  A    between atoms: _67  and  _68
REMARK   29  A    between atoms: _67  and  _70
REMARK   30  A    between atoms: _70  and  _71
REMARK   31  A    between atoms: _74  and  _76
REMARK   32  A    between atoms: _76  and  _77
REMARK   33  A    between atoms: _76  and  _79
REMARK   34  A    between atoms: _79  and  _80
REMARK   35  A    between atoms: _83  and  _85
REMARK   36  A    between atoms: _85  and  _86
REMARK   37  A    between atoms: _85  and  _88
REMARK   38  A    between atoms: _88  and  _89
REMARK   39  A    between atoms: _92  and  _94
REMARK   40  A    between atoms: _94  and  _95
REMARK   41  A    between atoms: _94  and  _97
REMARK   42  A    between atoms: _100  and  _102
REMARK   43  A    between atoms: _102  and  _103
REMARK   44  A    between atoms: _102  and  _105
REMARK   45  A    between atoms: _105  and  _106
REMARK   46  A    between atoms: _106  and  _107
REMARK   47  A    between atoms: _107  and  _108
REMARK   48  A    between atoms: _108  and  _109
REMARK   49  A    between atoms: _113  and  _115
REMARK   50  A    between atoms: _115  and  _116
REMARK   51  A    between atoms: _115  and  _118
REMARK   52  A    between atoms: _118  and  _119
REMARK   53  A    between atoms: _119  and  _120
REMARK   54  A    between atoms: _122  and  _124
REMARK   55  A    between atoms: _124  and  _125
REMARK   56  A    between atoms: _124  and  _127
REMARK   57  A    between atoms: _127  and  _128
REMARK   58  A    between atoms: _131  and  _133
REMARK   59  A    between atoms: _133  and  _134
REMARK   60  A    between atoms: _136  and  _138
REMARK   61  A    between atoms: _138  and  _139
REMARK   62  A    between atoms: _141  and  _143
REMARK   63  A    between atoms: _143  and  _144
REMARK   64  A    between atoms: _143  and  _146
REMARK   65  A    between atoms: _146  and  _147
REMARK   66  A    between atoms: _150  and  _152
REMARK   67  A    between atoms: _152  and  _153
REMARK   68  A    between atoms: _155  and  _157
REMARK   69  A    between atoms: _157  and  _158
REMARK   70  A    between atoms: _160  and  _162
REMARK   71  A    between atoms: _162  and  _163
REMARK   72  A    between atoms: _162  and  _165
REMARK   73  A    between atoms: _165  and  _166
REMARK   74  A    between atoms: _172  and  _174
REMARK   75  A    between atoms: _174  and  _175
REMARK   76  A    between atoms: _174  and  _177
REMARK   77  A    between atoms: _177  and  _178
REMARK   78  A    between atoms: _181  and  _183
REMARK   79  A    between atoms: _183  and  _184
REMARK   80  A    between atoms: _183  and  _186
REMARK   81  A    between atoms: _189  and  _191
REMARK   82  A    between atoms: _191  and  _192
REMARK   83  A    between atoms: _191  and  _194
REMARK   84  A    between atoms: _194  and  _195
REMARK   85  A    between atoms: _198  and  _200
REMARK   86  A    between atoms: _200  and  _201
REMARK   87  A    between atoms: _200  and  _203
REMARK   88  A    between atoms: _203  and  _204
REMARK   89  A    between atoms: _208  and  _209
REMARK   90  A    between atoms: _214  and  _216
REMARK   91  A    between atoms: _216  and  _217
REMARK   92  A    between atoms: _216  and  _219
REMARK   93  A    between atoms: _222  and  _224
REMARK   94  A    between atoms: _224  and  _225
REMARK   95  A    between atoms: _224  and  _227
REMARK   96  A    between atoms: _227  and  _228
REMARK   97  A    between atoms: _233  and  _235
REMARK   98  A    between atoms: _235  and  _236
REMARK   99  A    between atoms: _235  and  _238
REMARK  100  A    between atoms: _238  and  _239
REMARK  101  A    between atoms: _242  and  _244
REMARK  102  A    between atoms: _244  and  _245
REMARK  103  A    between atoms: _244  and  _247
REMARK  104  A    between atoms: _247  and  _248
REMARK  105  A    between atoms: _251  and  _253
REMARK  106  A    between atoms: _253  and  _254
REMARK  107  A    between atoms: _256  and  _258
REMARK  108  A    between atoms: _258  and  _259
REMARK  109  A    between atoms: _258  and  _261
REMARK  110  A    between atoms: _261  and  _262
REMARK  111  A    between atoms: _262  and  _263
REMARK  112  A    between atoms: _263  and  _264
REMARK  113  A    between atoms: _273  and  _275
REMARK  114  A    between atoms: _275  and  _276
REMARK  115  A    between atoms: _275  and  _278
REMARK  116  A    between atoms: _278  and  _279
REMARK  117  A    between atoms: _284  and  _286
REMARK  118  A    between atoms: _286  and  _287
REMARK  119  A    between atoms: _286  and  _289
REMARK  120  A    between atoms: _289  and  _290
REMARK  121  A    between atoms: _290  and  _291
REMARK  122  A    between atoms: _291  and  _292
REMARK  123  A    between atoms: _301  and  _303
REMARK  124  A    between atoms: _303  and  _304
REMARK  125  A    between atoms: _303  and  _306
REMARK  126  A    between atoms: _306  and  _307
REMARK  127  A    between atoms: _310  and  _312
REMARK  128  A    between atoms: _312  and  _313
REMARK  129  A    between atoms: _312  and  _315
REMARK  130  A    between atoms: _315  and  _316
REMARK  131  A    between atoms: _319  and  _321
REMARK  132  A    between atoms: _321  and  _322
REMARK  133  A    between atoms: _321  and  _324
REMARK  134  A    between atoms: _324  and  _325
REMARK  135  A    between atoms: _328  and  _330
REMARK  136  A    between atoms: _330  and  _331
REMARK  137  A    between atoms: _330  and  _333
REMARK  138  A    between atoms: _333  and  _334
REMARK  139  A    between atoms: _337  and  _339
REMARK  140  A    between atoms: _339  and  _340
REMARK  141  A    between atoms: _342  and  _344
REMARK  142  A    between atoms: _344  and  _345
REMARK  143  A    between atoms: _348  and  _350
REMARK  144  A    between atoms: _350  and  _351
REMARK  145  A    between atoms: _350  and  _353
REMARK  146  A    between atoms: _353  and  _354
REMARK  147  A    between atoms: _357  and  _359
REMARK  148  A    between atoms: _359  and  _360
REMARK  149  A    between atoms: _359  and  _362
REMARK  150  A    between atoms: _362  and  _363
REMARK  151  A    between atoms: _366  and  _368
REMARK  152  A    between atoms: _368  and  _369
REMARK  153  A    between atoms: _368  and  _371
REMARK  154  A    between atoms: _371  and  _372
REMARK  155  A    between atoms: _375  and  _377
REMARK  156  A    between atoms: _377  and  _378
REMARK  157  A    between atoms: _377  and  _380
REMARK  158  A    between atoms: _383  and  _385
REMARK  159  A    between atoms: _385  and  _386
REMARK  160  A    between atoms: _385  and  _388
REMARK  161  A    between atoms: _388  and  _389
REMARK  162  A    between atoms: _389  and  _390
REMARK  163  A    between atoms: _390  and  _391
REMARK  164  A    between atoms: _391  and  _392
REMARK  165  A    between atoms: _396  and  _398
REMARK  166  A    between atoms: _398  and  _399
REMARK  167  A    between atoms: _398  and  _401
REMARK  168  A    between atoms: _401  and  _402
REMARK  169  A    between atoms: _402  and  _403
REMARK  170  A    between atoms: _405  and  _407
REMARK  171  A    between atoms: _407  and  _408
REMARK  172  A    between atoms: _407  and  _410
REMARK  173  A    between atoms: _410  and  _411
REMARK  174  A    between atoms: _414  and  _416
REMARK  175  A    between atoms: _416  and  _417
REMARK  176  A    between atoms: _419  and  _421
REMARK  177  A    between atoms: _421  and  _422
REMARK  178  A    between atoms: _424  and  _426
REMARK  179  A    between atoms: _426  and  _427
REMARK  180  A    between atoms: _426  and  _429
REMARK  181  A    between atoms: _429  and  _430
REMARK  182  A    between atoms: _433  and  _435
REMARK  183  A    between atoms: _435  and  _436
REMARK  184  A    between atoms: _438  and  _440
REMARK  185  A    between atoms: _440  and  _441
REMARK  186  A    between atoms: _443  and  _445
REMARK  187  A    between atoms: _445  and  _446
REMARK  188  A    between atoms: _445  and  _448
REMARK  189  A    between atoms: _448  and  _449
REMARK  190  A    between atoms: _455  and  _457
REMARK  191  A    between atoms: _457  and  _458
REMARK  192  A    between atoms: _457  and  _460
REMARK  193  A    between atoms: _460  and  _461
REMARK  194  A    between atoms: _464  and  _466
REMARK  195  A    between atoms: _466  and  _467
REMARK  196  A    between atoms: _466  and  _469
REMARK  197  A    between atoms: _469  and  _470
REMARK  198  A    between atoms: _473  and  _475
REMARK  199  A    between atoms: _475  and  _476
REMARK  200  A    between atoms: _475  and  _478
REMARK  201  A    between atoms: _478  and  _479
REMARK  202  A    between atoms: _483  and  _484
REMARK  203  A    between atoms: _489  and  _491
REMARK  204  A    between atoms: _491  and  _492
REMARK  205  A    between atoms: _491  and  _494
REMARK  206  A    between atoms: _497  and  _499
REMARK  207  A    between atoms: _499  and  _500
REMARK  208  A    between atoms: _499  and  _502
REMARK  209  A    between atoms: _502  and  _503
REMARK  210  A    between atoms: _508  and  _510
REMARK  211  A    between atoms: _510  and  _511
REMARK  212  A    between atoms: _510  and  _513
REMARK  213  A    between atoms: _513  and  _514
REMARK  214  A    between atoms: _517  and  _519
REMARK  215  A    between atoms: _519  and  _520
REMARK  216  A    between atoms: _519  and  _522
REMARK  217  A    between atoms: _522  and  _523
REMARK  218  A    between atoms: _526  and  _528
REMARK  219  A    between atoms: _528  and  _529
REMARK  220  A    between atoms: _531  and  _533
REMARK  221  A    between atoms: _533  and  _534
REMARK  222  A    between atoms: _533  and  _536
REMARK  223  A    between atoms: _536  and  _537
REMARK  224  A    between atoms: _537  and  _538
REMARK  225  A    between atoms: _538  and  _539
REMARK  226  A    between atoms: _548  and  _550
REMARK  227  A    between atoms: _550  and  _551
REMARK  228  A    between atoms: _550  and  _553
REMARK  229  A    between atoms: _553  and  _554
REMARK                            x       y       z     vdW  Elec       q    Type
REMARK                         _______ _______ _______ _____ _____    ______ ____
ROOT
ATOM      1  O   HOH     1      17.288  20.697  16.749  0.00  0.00    +0.000 OA
ENDROOT
TORSDOF 0
REMARK  Name = ../refined-set-2016/2i4d/2i4d_pocket.pdb
REMARK  229 active torsions:
REMARK  status: ('A' for Active; 'I' for Inactive)
REMARK    1  A    between atoms: _1  and  _3
REMARK    2  A    between atoms: _3  and  _4
REMARK    3  A    between atoms: _3  and  _6
REMARK    4  A    between atoms: _6  and  _7
REMARK    5  A    between atoms: _7  and  _8
REMARK    6  A    between atoms: _8  and  _9
REMARK    7  A    between atoms: _18  and  _20
REMARK    8  A    between atoms: _20  and  _21
REMARK    9  A    between atoms: _20  and  _23
REMARK   10  A    between atoms: _23  and  _24
REMARK   11  A    between atoms: _27  and  _29
REMARK   12  A    between atoms: _29  and  _30
REMARK   13  A    between atoms: _29  and  _32
REMARK   14  A    between atoms: _32  and  _33
REMARK   15  A    between atoms: _36  and  _38
REMARK   16  A    between atoms: _38  and  _39
REMARK   17  A    between atoms: _38  and  _41
REMARK   18  A    between atoms: _41  and  _42
REMARK   19  A    between atoms: _45  and  _47
REMARK   20  A    between atoms: _47  and  _48
REMARK   21  A    between atoms: _47  and  _50
REMARK   22  A    between atoms: _50  and  _51
REMARK   23  A    between atoms: _54  and  _56
REMARK   24  A    between atoms: _56  and  _57
REMARK   25  A    between atoms: _59  and  _61
REMARK   26  A    between atoms: _61  and  _62
REMARK   27  A    between atoms: _65  and  _67
REMARK   28  A    between atoms: _67  and  _68
REMARK   29  A    between atoms: _67  and  _70
REMARK   30  A    between atoms: _70  and  _71
REMARK   31  A    between atoms: _74  and  _76
REMARK   32  A    between atoms: _76  and  _77
REMARK   33  A    between atoms: _76  and  _79
REMARK   34  A    between atoms: _79  and  _80
REMARK   35  A    between atoms: _83  and  _85
REMARK   36  A    between atoms: _85  and  _86
REMARK   37  A    between atoms: _85  and  _88
REMARK   38  A    between atoms: _88  and  _89
REMARK   39  A    between atoms: _92  and  _94
REMARK   40  A    between atoms: _94  and  _95
REMARK   41  A    between atoms: _94  and  _97
REMARK   42  A    between atoms: _100  and  _102
REMARK   43  A    between atoms: _102  and  _103
REMARK   44  A    between atoms: _102  and  _105
REMARK   45  A    between atoms: _105  and  _106
REMARK   46  A    between atoms: _106  and  _107
REMARK   47  A    between atoms: _107  and  _108
REMARK   48  A    between atoms: _108  and  _109
REMARK   49  A    between atoms: _113  and  _115
REMARK   50  A    between atoms: _115  and  _116
REMARK   51  A    between atoms: _115  and  _118
REMARK   52  A    between atoms: _118  and  _119
REMARK   53  A    between atoms: _119  and  _120
REMARK   54  A    between atoms: _122  and  _124
REMARK   55  A    between atoms: _124  and  _125
REMARK   56  A    between atoms: _124  and  _127
REMARK   57  A    between atoms: _127  and  _128
REMARK   58  A    between atoms: _131  and  _133
REMARK   59  A    between atoms: _133  and  _134
REMARK   60  A    between atoms: _136  and  _138
REMARK   61  A    between atoms: _138  and  _139
REMARK   62  A    between atoms: _141  and  _143
REMARK   63  A    between atoms: _143  and  _144
REMARK   64  A    between atoms: _143  and  _146
REMARK   65  A    between atoms: _146  and  _147
REMARK   66  A    between atoms: _150  and  _152
REMARK   67  A    between atoms: _152  and  _153
REMARK   68  A    between atoms: _155  and  _157
REMARK   69  A    between atoms: _157  and  _158
REMARK   70  A    between atoms: _160  and  _162
REMARK   71  A    between atoms: _162  and  _163
REMARK   72  A    between atoms: _162  and  _165
REMARK   73  A    between atoms: _165  and  _166
REMARK   74  A    between atoms: _172  and  _174
REMARK   75  A    between atoms: _174  and  _175
REMARK   76  A    between atoms: _174  and  _177
REMARK   77  A    between atoms: _177  and  _178
REMARK   78  A    between atoms: _181  and  _183
REMARK   79  A    between atoms: _183  and  _184
REMARK   80  A    between atoms: _183  and  _186
REMARK   81  A    between atoms: _189  and  _191
REMARK   82  A    between atoms: _191  and  _192
REMARK   83  A    between atoms: _191  and  _194
REMARK   84  A    between atoms: _194  and  _195
REMARK   85  A    between atoms: _198  and  _200
REMARK   86  A    between atoms: _200  and  _201
REMARK   87  A    between atoms: _200  and  _203
REMARK   88  A    between atoms: _203  and  _204
REMARK   89  A    between atoms: _208  and  _209
REMARK   90  A    between atoms: _214  and  _216
REMARK   91  A    between atoms: _216  and  _217
REMARK   92  A    between atoms: _216  and  _219
REMARK   93  A    between atoms: _222  and  _224
REMARK   94  A    between atoms: _224  and  _225
REMARK   95  A    between atoms: _224  and  _227
REMARK   96  A    between atoms: _227  and  _228
REMARK   97  A    between atoms: _233  and  _235
REMARK   98  A    between atoms: _235  and  _236
REMARK   99  A    between atoms: _235  and  _238
REMARK  100  A    between atoms: _238  and  _239
REMARK  101  A    between atoms: _242  and  _244
REMARK  102  A    between atoms: _244  and  _245
REMARK  103  A    between atoms: _244  and  _247
REMARK  104  A    between atoms: _247  and  _248
REMARK  105  A    between atoms: _251  and  _253
REMARK  106  A    between atoms: _253  and  _254
REMARK  107  A    between atoms: _256  and  _258
REMARK  108  A    between atoms: _258  and  _259
REMARK  109  A    between atoms: _258  and  _261
REMARK  110  A    between atoms: _261  and  _262
REMARK  111  A    between atoms: _262  and  _263
REMARK  112  A    between atoms: _263  and  _264
REMARK  113  A    between atoms: _273  and  _275
REMARK  114  A    between atoms: _275  and  _276
REMARK  115  A    between atoms: _275  and  _278
REMARK  116  A    between atoms: _278  and  _279
REMARK  117  A    between atoms: _284  and  _286
REMARK  118  A    between atoms: _286  and  _287
REMARK  119  A    between atoms: _286  and  _289
REMARK  120  A    between atoms: _289  and  _290
REMARK  121  A    between atoms: _290  and  _291
REMARK  122  A    between atoms: _291  and  _292
REMARK  123  A    between atoms: _301  and  _303
REMARK  124  A    between atoms: _303  and  _304
REMARK  125  A    between atoms: _303  and  _306
REMARK  126  A    between atoms: _306  and  _307
REMARK  127  A    between atoms: _310  and  _312
REMARK  128  A    between atoms: _312  and  _313
REMARK  129  A    between atoms: _312  and  _315
REMARK  130  A    between atoms: _315  and  _316
REMARK  131  A    between atoms: _319  and  _321
REMARK  132  A    between atoms: _321  and  _322
REMARK  133  A    between atoms: _321  and  _324
REMARK  134  A    between atoms: _324  and  _325
REMARK  135  A    between atoms: _328  and  _330
REMARK  136  A    between atoms: _330  and  _331
REMARK  137  A    between atoms: _330  and  _333
REMARK  138  A    between atoms: _333  and  _334
REMARK  139  A    between atoms: _337  and  _339
REMARK  140  A    between atoms: _339  and  _340
REMARK  141  A    between atoms: _342  and  _344
REMARK  142  A    between atoms: _344  and  _345
REMARK  143  A    between atoms: _348  and  _350
REMARK  144  A    between atoms: _350  and  _351
REMARK  145  A    between atoms: _350  and  _353
REMARK  146  A    between atoms: _353  and  _354
REMARK  147  A    between atoms: _357  and  _359
REMARK  148  A    between atoms: _359  and  _360
REMARK  149  A    between atoms: _359  and  _362
REMARK  150  A    between atoms: _362  and  _363
REMARK  151  A    between atoms: _366  and  _368
REMARK  152  A    between atoms: _368  and  _369
REMARK  153  A    between atoms: _368  and  _371
REMARK  154  A    between atoms: _371  and  _372
REMARK  155  A    between atoms: _375  and  _377
REMARK  156  A    between atoms: _377  and  _378
REMARK  157  A    between atoms: _377  and  _380
REMARK  158  A    between atoms: _383  and  _385
REMARK  159  A    between atoms: _385  and  _386
REMARK  160  A    between atoms: _385  and  _388
REMARK  161  A    between atoms: _388  and  _389
REMARK  162  A    between atoms: _389  and  _390
REMARK  163  A    between atoms: _390  and  _391
REMARK  164  A    between atoms: _391  and  _392
REMARK  165  A    between atoms: _396  and  _398
REMARK  166  A    between atoms: _398  and  _399
REMARK  167  A    between atoms: _398  and  _401
REMARK  168  A    between atoms: _401  and  _402
REMARK  169  A    between atoms: _402  and  _403
REMARK  170  A    between atoms: _405  and  _407
REMARK  171  A    between atoms: _407  and  _408
REMARK  172  A    between atoms: _407  and  _410
REMARK  173  A    between atoms: _410  and  _411
REMARK  174  A    between atoms: _414  and  _416
REMARK  175  A    between atoms: _416  and  _417
REMARK  176  A    between atoms: _419  and  _421
REMARK  177  A    between atoms: _421  and  _422
REMARK  178  A    between atoms: _424  and  _426
REMARK  179  A    between atoms: _426  and  _427
REMARK  180  A    between atoms: _426  and  _429
REMARK  181  A    between atoms: _429  and  _430
REMARK  182  A    between atoms: _433  and  _435
REMARK  183  A    between atoms: _435  and  _436
REMARK  184  A    between atoms: _438  and  _440
REMARK  185  A    between atoms: _440  and  _441
REMARK  186  A    between atoms: _443  and  _445
REMARK  187  A    between atoms: _445  and  _446
REMARK  188  A    between atoms: _445  and  _448
REMARK  189  A    between atoms: _448  and  _449
REMARK  190  A    between atoms: _455  and  _457
REMARK  191  A    between atoms: _457  and  _458
REMARK  192  A    between atoms: _457  and  _460
REMARK  193  A    between atoms: _460  and  _461
REMARK  194  A    between atoms: _464  and  _466
REMARK  195  A    between atoms: _466  and  _467
REMARK  196  A    between atoms: _466  and  _469
REMARK  197  A    between atoms: _469  and  _470
REMARK  198  A    between atoms: _473  and  _475
REMARK  199  A    between atoms: _475  and  _476
REMARK  200  A    between atoms: _475  and  _478
REMARK  201  A    between atoms: _478  and  _479
REMARK  202  A    between atoms: _483  and  _484
REMARK  203  A    between atoms: _489  and  _491
REMARK  204  A    between atoms: _491  and  _492
REMARK  205  A    between atoms: _491  and  _494
REMARK  206  A    between atoms: _497  and  _499
REMARK  207  A    between atoms: _499  and  _500
REMARK  208  A    between atoms: _499  and  _502
REMARK  209  A    between atoms: _502  and  _503
REMARK  210  A    between atoms: _508  and  _510
REMARK  211  A    between atoms: _510  and  _511
REMARK  212  A    between atoms: _510  and  _513
REMARK  213  A    between atoms: _513  and  _514
REMARK  214  A    between atoms: _517  and  _519
REMARK  215  A    between atoms: _519  and  _520
REMARK  216  A    between atoms: _519  and  _522
REMARK  217  A    between atoms: _522  and  _523
REMARK  218  A    between atoms: _526  and  _528
REMARK  219  A    between atoms: _528  and  _529
REMARK  220  A    between atoms: _531  and  _533
REMARK  221  A    between atoms: _533  and  _534
REMARK  222  A    between atoms: _533  and  _536
REMARK  223  A    between atoms: _536  and  _537
REMARK  224  A    between atoms: _537  and  _538
REMARK  225  A    between atoms: _538  and  _539
REMARK  226  A    between atoms: _548  and  _550
REMARK  227  A    between atoms: _550  and  _551
REMARK  228  A    between atoms: _550  and  _553
REMARK  229  A    between atoms: _553  and  _554
REMARK                            x       y       z     vdW  Elec       q    Type
REMARK                         _______ _______ _______ _____ _____    ______ ____
ROOT
ATOM      1  O   HOH     1       8.993  16.432  26.847  0.00  0.00    +0.000 OA
ENDROOT
TORSDOF 0
REMARK  Name = ../refined-set-2016/2i4d/2i4d_pocket.pdb
REMARK  229 active torsions:
REMARK  status: ('A' for Active; 'I' for Inactive)
REMARK    1  A    between atoms: _1  and  _3
REMARK    2  A    between atoms: _3  and  _4
REMARK    3  A    between atoms: _3  and  _6
REMARK    4  A    between atoms: _6  and  _7
REMARK    5  A    between atoms: _7  and  _8
REMARK    6  A    between atoms: _8  and  _9
REMARK    7  A    between atoms: _18  and  _20
REMARK    8  A    between atoms: _20  and  _21
REMARK    9  A    between atoms: _20  and  _23
REMARK   10  A    between atoms: _23  and  _24
REMARK   11  A    between atoms: _27  and  _29
REMARK   12  A    between atoms: _29  and  _30
REMARK   13  A    between atoms: _29  and  _32
REMARK   14  A    between atoms: _32  and  _33
REMARK   15  A    between atoms: _36  and  _38
REMARK   16  A    between atoms: _38  and  _39
REMARK   17  A    between atoms: _38  and  _41
REMARK   18  A    between atoms: _41  and  _42
REMARK   19  A    between atoms: _45  and  _47
REMARK   20  A    between atoms: _47  and  _48
REMARK   21  A    between atoms: _47  and  _50
REMARK   22  A    between atoms: _50  and  _51
REMARK   23  A    between atoms: _54  and  _56
REMARK   24  A    between atoms: _56  and  _57
REMARK   25  A    between atoms: _59  and  _61
REMARK   26  A    between atoms: _61  and  _62
REMARK   27  A    between atoms: _65  and  _67
REMARK   28  A    between atoms: _67  and  _68
REMARK   29  A    between atoms: _67  and  _70
REMARK   30  A    between atoms: _70  and  _71
REMARK   31  A    between atoms: _74  and  _76
REMARK   32  A    between atoms: _76  and  _77
REMARK   33  A    between atoms: _76  and  _79
REMARK   34  A    between atoms: _79  and  _80
REMARK   35  A    between atoms: _83  and  _85
REMARK   36  A    between atoms: _85  and  _86
REMARK   37  A    between atoms: _85  and  _88
REMARK   38  A    between atoms: _88  and  _89
REMARK   39  A    between atoms: _92  and  _94
REMARK   40  A    between atoms: _94  and  _95
REMARK   41  A    between atoms: _94  and  _97
REMARK   42  A    between atoms: _100  and  _102
REMARK   43  A    between atoms: _102  and  _103
REMARK   44  A    between atoms: _102  and  _105
REMARK   45  A    between atoms: _105  and  _106
REMARK   46  A    between atoms: _106  and  _107
REMARK   47  A    between atoms: _107  and  _108
REMARK   48  A    between atoms: _108  and  _109
REMARK   49  A    between atoms: _113  and  _115
REMARK   50  A    between atoms: _115  and  _116
REMARK   51  A    between atoms: _115  and  _118
REMARK   52  A    between atoms: _118  and  _119
REMARK   53  A    between atoms: _119  and  _120
REMARK   54  A    between atoms: _122  and  _124
REMARK   55  A    between atoms: _124  and  _125
REMARK   56  A    between atoms: _124  and  _127
REMARK   57  A    between atoms: _127  and  _128
REMARK   58  A    between atoms: _131  and  _133
REMARK   59  A    between atoms: _133  and  _134
REMARK   60  A    between atoms: _136  and  _138
REMARK   61  A    between atoms: _138  and  _139
REMARK   62  A    between atoms: _141  and  _143
REMARK   63  A    between atoms: _143  and  _144
REMARK   64  A    between atoms: _143  and  _146
REMARK   65  A    between atoms: _146  and  _147
REMARK   66  A    between atoms: _150  and  _152
REMARK   67  A    between atoms: _152  and  _153
REMARK   68  A    between atoms: _155  and  _157
REMARK   69  A    between atoms: _157  and  _158
REMARK   70  A    between atoms: _160  and  _162
REMARK   71  A    between atoms: _162  and  _163
REMARK   72  A    between atoms: _162  and  _165
REMARK   73  A    between atoms: _165  and  _166
REMARK   74  A    between atoms: _172  and  _174
REMARK   75  A    between atoms: _174  and  _175
REMARK   76  A    between atoms: _174  and  _177
REMARK   77  A    between atoms: _177  and  _178
REMARK   78  A    between atoms: _181  and  _183
REMARK   79  A    between atoms: _183  and  _184
REMARK   80  A    between atoms: _183  and  _186
REMARK   81  A    between atoms: _189  and  _191
REMARK   82  A    between atoms: _191  and  _192
REMARK   83  A    between atoms: _191  and  _194
REMARK   84  A    between atoms: _194  and  _195
REMARK   85  A    between atoms: _198  and  _200
REMARK   86  A    between atoms: _200  and  _201
REMARK   87  A    between atoms: _200  and  _203
REMARK   88  A    between atoms: _203  and  _204
REMARK   89  A    between atoms: _208  and  _209
REMARK   90  A    between atoms: _214  and  _216
REMARK   91  A    between atoms: _216  and  _217
REMARK   92  A    between atoms: _216  and  _219
REMARK   93  A    between atoms: _222  and  _224
REMARK   94  A    between atoms: _224  and  _225
REMARK   95  A    between atoms: _224  and  _227
REMARK   96  A    between atoms: _227  and  _228
REMARK   97  A    between atoms: _233  and  _235
REMARK   98  A    between atoms: _235  and  _236
REMARK   99  A    between atoms: _235  and  _238
REMARK  100  A    between atoms: _238  and  _239
REMARK  101  A    between atoms: _242  and  _244
REMARK  102  A    between atoms: _244  and  _245
REMARK  103  A    between atoms: _244  and  _247
REMARK  104  A    between atoms: _247  and  _248
REMARK  105  A    between atoms: _251  and  _253
REMARK  106  A    between atoms: _253  and  _254
REMARK  107  A    between atoms: _256  and  _258
REMARK  108  A    between atoms: _258  and  _259
REMARK  109  A    between atoms: _258  and  _261
REMARK  110  A    between atoms: _261  and  _262
REMARK  111  A    between atoms: _262  and  _263
REMARK  112  A    between atoms: _263  and  _264
REMARK  113  A    between atoms: _273  and  _275
REMARK  114  A    between atoms: _275  and  _276
REMARK  115  A    between atoms: _275  and  _278
REMARK  116  A    between atoms: _278  and  _279
REMARK  117  A    between atoms: _284  and  _286
REMARK  118  A    between atoms: _286  and  _287
REMARK  119  A    between atoms: _286  and  _289
REMARK  120  A    between atoms: _289  and  _290
REMARK  121  A    between atoms: _290  and  _291
REMARK  122  A    between atoms: _291  and  _292
REMARK  123  A    between atoms: _301  and  _303
REMARK  124  A    between atoms: _303  and  _304
REMARK  125  A    between atoms: _303  and  _306
REMARK  126  A    between atoms: _306  and  _307
REMARK  127  A    between atoms: _310  and  _312
REMARK  128  A    between atoms: _312  and  _313
REMARK  129  A    between atoms: _312  and  _315
REMARK  130  A    between atoms: _315  and  _316
REMARK  131  A    between atoms: _319  and  _321
REMARK  132  A    between atoms: _321  and  _322
REMARK  133  A    between atoms: _321  and  _324
REMARK  134  A    between atoms: _324  and  _325
REMARK  135  A    between atoms: _328  and  _330
REMARK  136  A    between atoms: _330  and  _331
REMARK  137  A    between atoms: _330  and  _333
REMARK  138  A    between atoms: _333  and  _334
REMARK  139  A    between atoms: _337  and  _339
REMARK  140  A    between atoms: _339  and  _340
REMARK  141  A    between atoms: _342  and  _344
REMARK  142  A    between atoms: _344  and  _345
REMARK  143  A    between atoms: _348  and  _350
REMARK  144  A    between atoms: _350  and  _351
REMARK  145  A    between atoms: _350  and  _353
REMARK  146  A    between atoms: _353  and  _354
REMARK  147  A    between atoms: _357  and  _359
REMARK  148  A    between atoms: _359  and  _360
REMARK  149  A    between atoms: _359  and  _362
REMARK  150  A    between atoms: _362  and  _363
REMARK  151  A    between atoms: _366  and  _368
REMARK  152  A    between atoms: _368  and  _369
REMARK  153  A    between atoms: _368  and  _371
REMARK  154  A    between atoms: _371  and  _372
REMARK  155  A    between atoms: _375  and  _377
REMARK  156  A    between atoms: _377  and  _378
REMARK  157  A    between atoms: _377  and  _380
REMARK  158  A    between atoms: _383  and  _385
REMARK  159  A    between atoms: _385  and  _386
REMARK  160  A    between atoms: _385  and  _388
REMARK  161  A    between atoms: _388  and  _389
REMARK  162  A    between atoms: _389  and  _390
REMARK  163  A    between atoms: _390  and  _391
REMARK  164  A    between atoms: _391  and  _392
REMARK  165  A    between atoms: _396  and  _398
REMARK  166  A    between atoms: _398  and  _399
REMARK  167  A    between atoms: _398  and  _401
REMARK  168  A    between atoms: _401  and  _402
REMARK  169  A    between atoms: _402  and  _403
REMARK  170  A    between atoms: _405  and  _407
REMARK  171  A    between atoms: _407  and  _408
REMARK  172  A    between atoms: _407  and  _410
REMARK  173  A    between atoms: _410  and  _411
REMARK  174  A    between atoms: _414  and  _416
REMARK  175  A    between atoms: _416  and  _417
REMARK  176  A    between atoms: _419  and  _421
REMARK  177  A    between atoms: _421  and  _422
REMARK  178  A    between atoms: _424  and  _426
REMARK  179  A    between atoms: _426  and  _427
REMARK  180  A    between atoms: _426  and  _429
REMARK  181  A    between atoms: _429  and  _430
REMARK  182  A    between atoms: _433  and  _435
REMARK  183  A    between atoms: _435  and  _436
REMARK  184  A    between atoms: _438  and  _440
REMARK  185  A    between atoms: _440  and  _441
REMARK  186  A    between atoms: _443  and  _445
REMARK  187  A    between atoms: _445  and  _446
REMARK  188  A    between atoms: _445  and  _448
REMARK  189  A    between atoms: _448  and  _449
REMARK  190  A    between atoms: _455  and  _457
REMARK  191  A    between atoms: _457  and  _458
REMARK  192  A    between atoms: _457  and  _460
REMARK  193  A    between atoms: _460  and  _461
REMARK  194  A    between atoms: _464  and  _466
REMARK  195  A    between atoms: _466  and  _467
REMARK  196  A    between atoms: _466  and  _469
REMARK  197  A    between atoms: _469  and  _470
REMARK  198  A    between atoms: _473  and  _475
REMARK  199  A    between atoms: _475  and  _476
REMARK  200  A    between atoms: _475  and  _478
REMARK  201  A    between atoms: _478  and  _479
REMARK  202  A    between atoms: _483  and  _484
REMARK  203  A    between atoms: _489  and  _491
REMARK  204  A    between atoms: _491  and  _492
REMARK  205  A    between atoms: _491  and  _494
REMARK  206  A    between atoms: _497  and  _499
REMARK  207  A    between atoms: _499  and  _500
REMARK  208  A    between atoms: _499  and  _502
REMARK  209  A    between atoms: _502  and  _503
REMARK  210  A    between atoms: _508  and  _510
REMARK  211  A    between atoms: _510  and  _511
REMARK  212  A    between atoms: _510  and  _513
REMARK  213  A    between atoms: _513  and  _514
REMARK  214  A    between atoms: _517  and  _519
REMARK  215  A    between atoms: _519  and  _520
REMARK  216  A    between atoms: _519  and  _522
REMARK  217  A    between atoms: _522  and  _523
REMARK  218  A    between atoms: _526  and  _528
REMARK  219  A    between atoms: _528  and  _529
REMARK  220  A    between atoms: _531  and  _533
REMARK  221  A    between atoms: _533  and  _534
REMARK  222  A    between atoms: _533  and  _536
REMARK  223  A    between atoms: _536  and  _537
REMARK  224  A    between atoms: _537  and  _538
REMARK  225  A    between atoms: _538  and  _539
REMARK  226  A    between atoms: _548  and  _550
REMARK  227  A    between atoms: _550  and  _551
REMARK  228  A    between atoms: _550  and  _553
REMARK  229  A    between atoms: _553  and  _554
REMARK                            x       y       z     vdW  Elec       q    Type
REMARK                         _______ _______ _______ _____ _____    ______ ____
ROOT
ATOM      1  O   HOH     1      14.524  15.593  11.962  0.00  0.00    +0.000 OA
ENDROOT
TORSDOF 0
REMARK  Name = ../refined-set-2016/2i4d/2i4d_pocket.pdb
REMARK  229 active torsions:
REMARK  status: ('A' for Active; 'I' for Inactive)
REMARK    1  A    between atoms: _1  and  _3
REMARK    2  A    between atoms: _3  and  _4
REMARK    3  A    between atoms: _3  and  _6
REMARK    4  A    between atoms: _6  and  _7
REMARK    5  A    between atoms: _7  and  _8
REMARK    6  A    between atoms: _8  and  _9
REMARK    7  A    between atoms: _18  and  _20
REMARK    8  A    between atoms: _20  and  _21
REMARK    9  A    between atoms: _20  and  _23
REMARK   10  A    between atoms: _23  and  _24
REMARK   11  A    between atoms: _27  and  _29
REMARK   12  A    between atoms: _29  and  _30
REMARK   13  A    between atoms: _29  and  _32
REMARK   14  A    between atoms: _32  and  _33
REMARK   15  A    between atoms: _36  and  _38
REMARK   16  A    between atoms: _38  and  _39
REMARK   17  A    between atoms: _38  and  _41
REMARK   18  A    between atoms: _41  and  _42
REMARK   19  A    between atoms: _45  and  _47
REMARK   20  A    between atoms: _47  and  _48
REMARK   21  A    between atoms: _47  and  _50
REMARK   22  A    between atoms: _50  and  _51
REMARK   23  A    between atoms: _54  and  _56
REMARK   24  A    between atoms: _56  and  _57
REMARK   25  A    between atoms: _59  and  _61
REMARK   26  A    between atoms: _61  and  _62
REMARK   27  A    between atoms: _65  and  _67
REMARK   28  A    between atoms: _67  and  _68
REMARK   29  A    between atoms: _67  and  _70
REMARK   30  A    between atoms: _70  and  _71
REMARK   31  A    between atoms: _74  and  _76
REMARK   32  A    between atoms: _76  and  _77
REMARK   33  A    between atoms: _76  and  _79
REMARK   34  A    between atoms: _79  and  _80
REMARK   35  A    between atoms: _83  and  _85
REMARK   36  A    between atoms: _85  and  _86
REMARK   37  A    between atoms: _85  and  _88
REMARK   38  A    between atoms: _88  and  _89
REMARK   39  A    between atoms: _92  and  _94
REMARK   40  A    between atoms: _94  and  _95
REMARK   41  A    between atoms: _94  and  _97
REMARK   42  A    between atoms: _100  and  _102
REMARK   43  A    between atoms: _102  and  _103
REMARK   44  A    between atoms: _102  and  _105
REMARK   45  A    between atoms: _105  and  _106
REMARK   46  A    between atoms: _106  and  _107
REMARK   47  A    between atoms: _107  and  _108
REMARK   48  A    between atoms: _108  and  _109
REMARK   49  A    between atoms: _113  and  _115
REMARK   50  A    between atoms: _115  and  _116
REMARK   51  A    between atoms: _115  and  _118
REMARK   52  A    between atoms: _118  and  _119
REMARK   53  A    between atoms: _119  and  _120
REMARK   54  A    between atoms: _122  and  _124
REMARK   55  A    between atoms: _124  and  _125
REMARK   56  A    between atoms: _124  and  _127
REMARK   57  A    between atoms: _127  and  _128
REMARK   58  A    between atoms: _131  and  _133
REMARK   59  A    between atoms: _133  and  _134
REMARK   60  A    between atoms: _136  and  _138
REMARK   61  A    between atoms: _138  and  _139
REMARK   62  A    between atoms: _141  and  _143
REMARK   63  A    between atoms: _143  and  _144
REMARK   64  A    between atoms: _143  and  _146
REMARK   65  A    between atoms: _146  and  _147
REMARK   66  A    between atoms: _150  and  _152
REMARK   67  A    between atoms: _152  and  _153
REMARK   68  A    between atoms: _155  and  _157
REMARK   69  A    between atoms: _157  and  _158
REMARK   70  A    between atoms: _160  and  _162
REMARK   71  A    between atoms: _162  and  _163
REMARK   72  A    between atoms: _162  and  _165
REMARK   73  A    between atoms: _165  and  _166
REMARK   74  A    between atoms: _172  and  _174
REMARK   75  A    between atoms: _174  and  _175
REMARK   76  A    between atoms: _174  and  _177
REMARK   77  A    between atoms: _177  and  _178
REMARK   78  A    between atoms: _181  and  _183
REMARK   79  A    between atoms: _183  and  _184
REMARK   80  A    between atoms: _183  and  _186
REMARK   81  A    between atoms: _189  and  _191
REMARK   82  A    between atoms: _191  and  _192
REMARK   83  A    between atoms: _191  and  _194
REMARK   84  A    between atoms: _194  and  _195
REMARK   85  A    between atoms: _198  and  _200
REMARK   86  A    between atoms: _200  and  _201
REMARK   87  A    between atoms: _200  and  _203
REMARK   88  A    between atoms: _203  and  _204
REMARK   89  A    between atoms: _208  and  _209
REMARK   90  A    between atoms: _214  and  _216
REMARK   91  A    between atoms: _216  and  _217
REMARK   92  A    between atoms: _216  and  _219
REMARK   93  A    between atoms: _222  and  _224
REMARK   94  A    between atoms: _224  and  _225
REMARK   95  A    between atoms: _224  and  _227
REMARK   96  A    between atoms: _227  and  _228
REMARK   97  A    between atoms: _233  and  _235
REMARK   98  A    between atoms: _235  and  _236
REMARK   99  A    between atoms: _235  and  _238
REMARK  100  A    between atoms: _238  and  _239
REMARK  101  A    between atoms: _242  and  _244
REMARK  102  A    between atoms: _244  and  _245
REMARK  103  A    between atoms: _244  and  _247
REMARK  104  A    between atoms: _247  and  _248
REMARK  105  A    between atoms: _251  and  _253
REMARK  106  A    between atoms: _253  and  _254
REMARK  107  A    between atoms: _256  and  _258
REMARK  108  A    between atoms: _258  and  _259
REMARK  109  A    between atoms: _258  and  _261
REMARK  110  A    between atoms: _261  and  _262
REMARK  111  A    between atoms: _262  and  _263
REMARK  112  A    between atoms: _263  and  _264
REMARK  113  A    between atoms: _273  and  _275
REMARK  114  A    between atoms: _275  and  _276
REMARK  115  A    between atoms: _275  and  _278
REMARK  116  A    between atoms: _278  and  _279
REMARK  117  A    between atoms: _284  and  _286
REMARK  118  A    between atoms: _286  and  _287
REMARK  119  A    between atoms: _286  and  _289
REMARK  120  A    between atoms: _289  and  _290
REMARK  121  A    between atoms: _290  and  _291
REMARK  122  A    between atoms: _291  and  _292
REMARK  123  A    between atoms: _301  and  _303
REMARK  124  A    between atoms: _303  and  _304
REMARK  125  A    between atoms: _303  and  _306
REMARK  126  A    between atoms: _306  and  _307
REMARK  127  A    between atoms: _310  and  _312
REMARK  128  A    between atoms: _312  and  _313
REMARK  129  A    between atoms: _312  and  _315
REMARK  130  A    between atoms: _315  and  _316
REMARK  131  A    between atoms: _319  and  _321
REMARK  132  A    between atoms: _321  and  _322
REMARK  133  A    between atoms: _321  and  _324
REMARK  134  A    between atoms: _324  and  _325
REMARK  135  A    between atoms: _328  and  _330
REMARK  136  A    between atoms: _330  and  _331
REMARK  137  A    between atoms: _330  and  _333
REMARK  138  A    between atoms: _333  and  _334
REMARK  139  A    between atoms: _337  and  _339
REMARK  140  A    between atoms: _339  and  _340
REMARK  141  A    between atoms: _342  and  _344
REMARK  142  A    between atoms: _344  and  _345
REMARK  143  A    between atoms: _348  and  _350
REMARK  144  A    between atoms: _350  and  _351
REMARK  145  A    between atoms: _350  and  _353
REMARK  146  A    between atoms: _353  and  _354
REMARK  147  A    between atoms: _357  and  _359
REMARK  148  A    between atoms: _359  and  _360
REMARK  149  A    between atoms: _359  and  _362
REMARK  150  A    between atoms: _362  and  _363
REMARK  151  A    between atoms: _366  and  _368
REMARK  152  A    between atoms: _368  and  _369
REMARK  153  A    between atoms: _368  and  _371
REMARK  154  A    between atoms: _371  and  _372
REMARK  155  A    between atoms: _375  and  _377
REMARK  156  A    between atoms: _377  and  _378
REMARK  157  A    between atoms: _377  and  _380
REMARK  158  A    between atoms: _383  and  _385
REMARK  159  A    between atoms: _385  and  _386
REMARK  160  A    between atoms: _385  and  _388
REMARK  161  A    between atoms: _388  and  _389
REMARK  162  A    between atoms: _389  and  _390
REMARK  163  A    between atoms: _390  and  _391
REMARK  164  A    between atoms: _391  and  _392
REMARK  165  A    between atoms: _396  and  _398
REMARK  166  A    between atoms: _398  and  _399
REMARK  167  A    between atoms: _398  and  _401
REMARK  168  A    between atoms: _401  and  _402
REMARK  169  A    between atoms: _402  and  _403
REMARK  170  A    between atoms: _405  and  _407
REMARK  171  A    between atoms: _407  and  _408
REMARK  172  A    between atoms: _407  and  _410
REMARK  173  A    between atoms: _410  and  _411
REMARK  174  A    between atoms: _414  and  _416
REMARK  175  A    between atoms: _416  and  _417
REMARK  176  A    between atoms: _419  and  _421
REMARK  177  A    between atoms: _421  and  _422
REMARK  178  A    between atoms: _424  and  _426
REMARK  179  A    between atoms: _426  and  _427
REMARK  180  A    between atoms: _426  and  _429
REMARK  181  A    between atoms: _429  and  _430
REMARK  182  A    between atoms: _433  and  _435
REMARK  183  A    between atoms: _435  and  _436
REMARK  184  A    between atoms: _438  and  _440
REMARK  185  A    between atoms: _440  and  _441
REMARK  186  A    between atoms: _443  and  _445
REMARK  187  A    between atoms: _445  and  _446
REMARK  188  A    between atoms: _445  and  _448
REMARK  189  A    between atoms: _448  and  _449
REMARK  190  A    between atoms: _455  and  _457
REMARK  191  A    between atoms: _457  and  _458
REMARK  192  A    between atoms: _457  and  _460
REMARK  193  A    between atoms: _460  and  _461
REMARK  194  A    between atoms: _464  and  _466
REMARK  195  A    between atoms: _466  and  _467
REMARK  196  A    between atoms: _466  and  _469
REMARK  197  A    between atoms: _469  and  _470
REMARK  198  A    between atoms: _473  and  _475
REMARK  199  A    between atoms: _475  and  _476
REMARK  200  A    between atoms: _475  and  _478
REMARK  201  A    between atoms: _478  and  _479
REMARK  202  A    between atoms: _483  and  _484
REMARK  203  A    between atoms: _489  and  _491
REMARK  204  A    between atoms: _491  and  _492
REMARK  205  A    between atoms: _491  and  _494
REMARK  206  A    between atoms: _497  and  _499
REMARK  207  A    between atoms: _499  and  _500
REMARK  208  A    between atoms: _499  and  _502
REMARK  209  A    between atoms: _502  and  _503
REMARK  210  A    between atoms: _508  and  _510
REMARK  211  A    between atoms: _510  and  _511
REMARK  212  A    between atoms: _510  and  _513
REMARK  213  A    between atoms: _513  and  _514
REMARK  214  A    between atoms: _517  and  _519
REMARK  215  A    between atoms: _519  and  _520
REMARK  216  A    between atoms: _519  and  _522
REMARK  217  A    between atoms: _522  and  _523
REMARK  218  A    between atoms: _526  and  _528
REMARK  219  A    between atoms: _528  and  _529
REMARK  220  A    between atoms: _531  and  _533
REMARK  221  A    between atoms: _533  and  _534
REMARK  222  A    between atoms: _533  and  _536
REMARK  223  A    between atoms: _536  and  _537
REMARK  224  A    between atoms: _537  and  _538
REMARK  225  A    between atoms: _538  and  _539
REMARK  226  A    between atoms: _548  and  _550
REMARK  227  A    between atoms: _550  and  _551
REMARK  228  A    between atoms: _550  and  _553
REMARK  229  A    between atoms: _553  and  _554
REMARK                            x       y       z     vdW  Elec       q    Type
REMARK                         _______ _______ _______ _____ _____    ______ ____
ROOT
ATOM      1  O   HOH     1      26.317  22.243  23.469  0.00  0.00    +0.000 OA
ENDROOT
TORSDOF 0
REMARK  Name = ../refined-set-2016/2i4d/2i4d_pocket.pdb
REMARK  229 active torsions:
REMARK  status: ('A' for Active; 'I' for Inactive)
REMARK    1  A    between atoms: _1  and  _3
REMARK    2  A    between atoms: _3  and  _4
REMARK    3  A    between atoms: _3  and  _6
REMARK    4  A    between atoms: _6  and  _7
REMARK    5  A    between atoms: _7  and  _8
REMARK    6  A    between atoms: _8  and  _9
REMARK    7  A    between atoms: _18  and  _20
REMARK    8  A    between atoms: _20  and  _21
REMARK    9  A    between atoms: _20  and  _23
REMARK   10  A    between atoms: _23  and  _24
REMARK   11  A    between atoms: _27  and  _29
REMARK   12  A    between atoms: _29  and  _30
REMARK   13  A    between atoms: _29  and  _32
REMARK   14  A    between atoms: _32  and  _33
REMARK   15  A    between atoms: _36  and  _38
REMARK   16  A    between atoms: _38  and  _39
REMARK   17  A    between atoms: _38  and  _41
REMARK   18  A    between atoms: _41  and  _42
REMARK   19  A    between atoms: _45  and  _47
REMARK   20  A    between atoms: _47  and  _48
REMARK   21  A    between atoms: _47  and  _50
REMARK   22  A    between atoms: _50  and  _51
REMARK   23  A    between atoms: _54  and  _56
REMARK   24  A    between atoms: _56  and  _57
REMARK   25  A    between atoms: _59  and  _61
REMARK   26  A    between atoms: _61  and  _62
REMARK   27  A    between atoms: _65  and  _67
REMARK   28  A    between atoms: _67  and  _68
REMARK   29  A    between atoms: _67  and  _70
REMARK   30  A    between atoms: _70  and  _71
REMARK   31  A    between atoms: _74  and  _76
REMARK   32  A    between atoms: _76  and  _77
REMARK   33  A    between atoms: _76  and  _79
REMARK   34  A    between atoms: _79  and  _80
REMARK   35  A    between atoms: _83  and  _85
REMARK   36  A    between atoms: _85  and  _86
REMARK   37  A    between atoms: _85  and  _88
REMARK   38  A    between atoms: _88  and  _89
REMARK   39  A    between atoms: _92  and  _94
REMARK   40  A    between atoms: _94  and  _95
REMARK   41  A    between atoms: _94  and  _97
REMARK   42  A    between atoms: _100  and  _102
REMARK   43  A    between atoms: _102  and  _103
REMARK   44  A    between atoms: _102  and  _105
REMARK   45  A    between atoms: _105  and  _106
REMARK   46  A    between atoms: _106  and  _107
REMARK   47  A    between atoms: _107  and  _108
REMARK   48  A    between atoms: _108  and  _109
REMARK   49  A    between atoms: _113  and  _115
REMARK   50  A    between atoms: _115  and  _116
REMARK   51  A    between atoms: _115  and  _118
REMARK   52  A    between atoms: _118  and  _119
REMARK   53  A    between atoms: _119  and  _120
REMARK   54  A    between atoms: _122  and  _124
REMARK   55  A    between atoms: _124  and  _125
REMARK   56  A    between atoms: _124  and  _127
REMARK   57  A    between atoms: _127  and  _128
REMARK   58  A    between atoms: _131  and  _133
REMARK   59  A    between atoms: _133  and  _134
REMARK   60  A    between atoms: _136  and  _138
REMARK   61  A    between atoms: _138  and  _139
REMARK   62  A    between atoms: _141  and  _143
REMARK   63  A    between atoms: _143  and  _144
REMARK   64  A    between atoms: _143  and  _146
REMARK   65  A    between atoms: _146  and  _147
REMARK   66  A    between atoms: _150  and  _152
REMARK   67  A    between atoms: _152  and  _153
REMARK   68  A    between atoms: _155  and  _157
REMARK   69  A    between atoms: _157  and  _158
REMARK   70  A    between atoms: _160  and  _162
REMARK   71  A    between atoms: _162  and  _163
REMARK   72  A    between atoms: _162  and  _165
REMARK   73  A    between atoms: _165  and  _166
REMARK   74  A    between atoms: _172  and  _174
REMARK   75  A    between atoms: _174  and  _175
REMARK   76  A    between atoms: _174  and  _177
REMARK   77  A    between atoms: _177  and  _178
REMARK   78  A    between atoms: _181  and  _183
REMARK   79  A    between atoms: _183  and  _184
REMARK   80  A    between atoms: _183  and  _186
REMARK   81  A    between atoms: _189  and  _191
REMARK   82  A    between atoms: _191  and  _192
REMARK   83  A    between atoms: _191  and  _194
REMARK   84  A    between atoms: _194  and  _195
REMARK   85  A    between atoms: _198  and  _200
REMARK   86  A    between atoms: _200  and  _201
REMARK   87  A    between atoms: _200  and  _203
REMARK   88  A    between atoms: _203  and  _204
REMARK   89  A    between atoms: _208  and  _209
REMARK   90  A    between atoms: _214  and  _216
REMARK   91  A    between atoms: _216  and  _217
REMARK   92  A    between atoms: _216  and  _219
REMARK   93  A    between atoms: _222  and  _224
REMARK   94  A    between atoms: _224  and  _225
REMARK   95  A    between atoms: _224  and  _227
REMARK   96  A    between atoms: _227  and  _228
REMARK   97  A    between atoms: _233  and  _235
REMARK   98  A    between atoms: _235  and  _236
REMARK   99  A    between atoms: _235  and  _238
REMARK  100  A    between atoms: _238  and  _239
REMARK  101  A    between atoms: _242  and  _244
REMARK  102  A    between atoms: _244  and  _245
REMARK  103  A    between atoms: _244  and  _247
REMARK  104  A    between atoms: _247  and  _248
REMARK  105  A    between atoms: _251  and  _253
REMARK  106  A    between atoms: _253  and  _254
REMARK  107  A    between atoms: _256  and  _258
REMARK  108  A    between atoms: _258  and  _259
REMARK  109  A    between atoms: _258  and  _261
REMARK  110  A    between atoms: _261  and  _262
REMARK  111  A    between atoms: _262  and  _263
REMARK  112  A    between atoms: _263  and  _264
REMARK  113  A    between atoms: _273  and  _275
REMARK  114  A    between atoms: _275  and  _276
REMARK  115  A    between atoms: _275  and  _278
REMARK  116  A    between atoms: _278  and  _279
REMARK  117  A    between atoms: _284  and  _286
REMARK  118  A    between atoms: _286  and  _287
REMARK  119  A    between atoms: _286  and  _289
REMARK  120  A    between atoms: _289  and  _290
REMARK  121  A    between atoms: _290  and  _291
REMARK  122  A    between atoms: _291  and  _292
REMARK  123  A    between atoms: _301  and  _303
REMARK  124  A    between atoms: _303  and  _304
REMARK  125  A    between atoms: _303  and  _306
REMARK  126  A    between atoms: _306  and  _307
REMARK  127  A    between atoms: _310  and  _312
REMARK  128  A    between atoms: _312  and  _313
REMARK  129  A    between atoms: _312  and  _315
REMARK  130  A    between atoms: _315  and  _316
REMARK  131  A    between atoms: _319  and  _321
REMARK  132  A    between atoms: _321  and  _322
REMARK  133  A    between atoms: _321  and  _324
REMARK  134  A    between atoms: _324  and  _325
REMARK  135  A    between atoms: _328  and  _330
REMARK  136  A    between atoms: _330  and  _331
REMARK  137  A    between atoms: _330  and  _333
REMARK  138  A    between atoms: _333  and  _334
REMARK  139  A    between atoms: _337  and  _339
REMARK  140  A    between atoms: _339  and  _340
REMARK  141  A    between atoms: _342  and  _344
REMARK  142  A    between atoms: _344  and  _345
REMARK  143  A    between atoms: _348  and  _350
REMARK  144  A    between atoms: _350  and  _351
REMARK  145  A    between atoms: _350  and  _353
REMARK  146  A    between atoms: _353  and  _354
REMARK  147  A    between atoms: _357  and  _359
REMARK  148  A    between atoms: _359  and  _360
REMARK  149  A    between atoms: _359  and  _362
REMARK  150  A    between atoms: _362  and  _363
REMARK  151  A    between atoms: _366  and  _368
REMARK  152  A    between atoms: _368  and  _369
REMARK  153  A    between atoms: _368  and  _371
REMARK  154  A    between atoms: _371  and  _372
REMARK  155  A    between atoms: _375  and  _377
REMARK  156  A    between atoms: _377  and  _378
REMARK  157  A    between atoms: _377  and  _380
REMARK  158  A    between atoms: _383  and  _385
REMARK  159  A    between atoms: _385  and  _386
REMARK  160  A    between atoms: _385  and  _388
REMARK  161  A    between atoms: _388  and  _389
REMARK  162  A    between atoms: _389  and  _390
REMARK  163  A    between atoms: _390  and  _391
REMARK  164  A    between atoms: _391  and  _392
REMARK  165  A    between atoms: _396  and  _398
REMARK  166  A    between atoms: _398  and  _399
REMARK  167  A    between atoms: _398  and  _401
REMARK  168  A    between atoms: _401  and  _402
REMARK  169  A    between atoms: _402  and  _403
REMARK  170  A    between atoms: _405  and  _407
REMARK  171  A    between atoms: _407  and  _408
REMARK  172  A    between atoms: _407  and  _410
REMARK  173  A    between atoms: _410  and  _411
REMARK  174  A    between atoms: _414  and  _416
REMARK  175  A    between atoms: _416  and  _417
REMARK  176  A    between atoms: _419  and  _421
REMARK  177  A    between atoms: _421  and  _422
REMARK  178  A    between atoms: _424  and  _426
REMARK  179  A    between atoms: _426  and  _427
REMARK  180  A    between atoms: _426  and  _429
REMARK  181  A    between atoms: _429  and  _430
REMARK  182  A    between atoms: _433  and  _435
REMARK  183  A    between atoms: _435  and  _436
REMARK  184  A    between atoms: _438  and  _440
REMARK  185  A    between atoms: _440  and  _441
REMARK  186  A    between atoms: _443  and  _445
REMARK  187  A    between atoms: _445  and  _446
REMARK  188  A    between atoms: _445  and  _448
REMARK  189  A    between atoms: _448  and  _449
REMARK  190  A    between atoms: _455  and  _457
REMARK  191  A    between atoms: _457  and  _458
REMARK  192  A    between atoms: _457  and  _460
REMARK  193  A    between atoms: _460  and  _461
REMARK  194  A    between atoms: _464  and  _466
REMARK  195  A    between atoms: _466  and  _467
REMARK  196  A    between atoms: _466  and  _469
REMARK  197  A    between atoms: _469  and  _470
REMARK  198  A    between atoms: _473  and  _475
REMARK  199  A    between atoms: _475  and  _476
REMARK  200  A    between atoms: _475  and  _478
REMARK  201  A    between atoms: _478  and  _479
REMARK  202  A    between atoms: _483  and  _484
REMARK  203  A    between atoms: _489  and  _491
REMARK  204  A    between atoms: _491  and  _492
REMARK  205  A    between atoms: _491  and  _494
REMARK  206  A    between atoms: _497  and  _499
REMARK  207  A    between atoms: _499  and  _500
REMARK  208  A    between atoms: _499  and  _502
REMARK  209  A    between atoms: _502  and  _503
REMARK  210  A    between atoms: _508  and  _510
REMARK  211  A    between atoms: _510  and  _511
REMARK  212  A    between atoms: _510  and  _513
REMARK  213  A    between atoms: _513  and  _514
REMARK  214  A    between atoms: _517  and  _519
REMARK  215  A    between atoms: _519  and  _520
REMARK  216  A    between atoms: _519  and  _522
REMARK  217  A    between atoms: _522  and  _523
REMARK  218  A    between atoms: _526  and  _528
REMARK  219  A    between atoms: _528  and  _529
REMARK  220  A    between atoms: _531  and  _533
REMARK  221  A    between atoms: _533  and  _534
REMARK  222  A    between atoms: _533  and  _536
REMARK  223  A    between atoms: _536  and  _537
REMARK  224  A    between atoms: _537  and  _538
REMARK  225  A    between atoms: _538  and  _539
REMARK  226  A    between atoms: _548  and  _550
REMARK  227  A    between atoms: _550  and  _551
REMARK  228  A    between atoms: _550  and  _553
REMARK  229  A    between atoms: _553  and  _554
REMARK                            x       y       z     vdW  Elec       q    Type
REMARK                         _______ _______ _______ _____ _____    ______ ____
ROOT
ATOM      1  O   HOH     1      21.667  27.703  22.690  0.00  0.00    +0.000 OA
ENDROOT
TORSDOF 0
REMARK  Name = ../refined-set-2016/2i4d/2i4d_pocket.pdb
REMARK  229 active torsions:
REMARK  status: ('A' for Active; 'I' for Inactive)
REMARK    1  A    between atoms: _1  and  _3
REMARK    2  A    between atoms: _3  and  _4
REMARK    3  A    between atoms: _3  and  _6
REMARK    4  A    between atoms: _6  and  _7
REMARK    5  A    between atoms: _7  and  _8
REMARK    6  A    between atoms: _8  and  _9
REMARK    7  A    between atoms: _18  and  _20
REMARK    8  A    between atoms: _20  and  _21
REMARK    9  A    between atoms: _20  and  _23
REMARK   10  A    between atoms: _23  and  _24
REMARK   11  A    between atoms: _27  and  _29
REMARK   12  A    between atoms: _29  and  _30
REMARK   13  A    between atoms: _29  and  _32
REMARK   14  A    between atoms: _32  and  _33
REMARK   15  A    between atoms: _36  and  _38
REMARK   16  A    between atoms: _38  and  _39
REMARK   17  A    between atoms: _38  and  _41
REMARK   18  A    between atoms: _41  and  _42
REMARK   19  A    between atoms: _45  and  _47
REMARK   20  A    between atoms: _47  and  _48
REMARK   21  A    between atoms: _47  and  _50
REMARK   22  A    between atoms: _50  and  _51
REMARK   23  A    between atoms: _54  and  _56
REMARK   24  A    between atoms: _56  and  _57
REMARK   25  A    between atoms: _59  and  _61
REMARK   26  A    between atoms: _61  and  _62
REMARK   27  A    between atoms: _65  and  _67
REMARK   28  A    between atoms: _67  and  _68
REMARK   29  A    between atoms: _67  and  _70
REMARK   30  A    between atoms: _70  and  _71
REMARK   31  A    between atoms: _74  and  _76
REMARK   32  A    between atoms: _76  and  _77
REMARK   33  A    between atoms: _76  and  _79
REMARK   34  A    between atoms: _79  and  _80
REMARK   35  A    between atoms: _83  and  _85
REMARK   36  A    between atoms: _85  and  _86
REMARK   37  A    between atoms: _85  and  _88
REMARK   38  A    between atoms: _88  and  _89
REMARK   39  A    between atoms: _92  and  _94
REMARK   40  A    between atoms: _94  and  _95
REMARK   41  A    between atoms: _94  and  _97
REMARK   42  A    between atoms: _100  and  _102
REMARK   43  A    between atoms: _102  and  _103
REMARK   44  A    between atoms: _102  and  _105
REMARK   45  A    between atoms: _105  and  _106
REMARK   46  A    between atoms: _106  and  _107
REMARK   47  A    between atoms: _107  and  _108
REMARK   48  A    between atoms: _108  and  _109
REMARK   49  A    between atoms: _113  and  _115
REMARK   50  A    between atoms: _115  and  _116
REMARK   51  A    between atoms: _115  and  _118
REMARK   52  A    between atoms: _118  and  _119
REMARK   53  A    between atoms: _119  and  _120
REMARK   54  A    between atoms: _122  and  _124
REMARK   55  A    between atoms: _124  and  _125
REMARK   56  A    between atoms: _124  and  _127
REMARK   57  A    between atoms: _127  and  _128
REMARK   58  A    between atoms: _131  and  _133
REMARK   59  A    between atoms: _133  and  _134
REMARK   60  A    between atoms: _136  and  _138
REMARK   61  A    between atoms: _138  and  _139
REMARK   62  A    between atoms: _141  and  _143
REMARK   63  A    between atoms: _143  and  _144
REMARK   64  A    between atoms: _143  and  _146
REMARK   65  A    between atoms: _146  and  _147
REMARK   66  A    between atoms: _150  and  _152
REMARK   67  A    between atoms: _152  and  _153
REMARK   68  A    between atoms: _155  and  _157
REMARK   69  A    between atoms: _157  and  _158
REMARK   70  A    between atoms: _160  and  _162
REMARK   71  A    between atoms: _162  and  _163
REMARK   72  A    between atoms: _162  and  _165
REMARK   73  A    between atoms: _165  and  _166
REMARK   74  A    between atoms: _172  and  _174
REMARK   75  A    between atoms: _174  and  _175
REMARK   76  A    between atoms: _174  and  _177
REMARK   77  A    between atoms: _177  and  _178
REMARK   78  A    between atoms: _181  and  _183
REMARK   79  A    between atoms: _183  and  _184
REMARK   80  A    between atoms: _183  and  _186
REMARK   81  A    between atoms: _189  and  _191
REMARK   82  A    between atoms: _191  and  _192
REMARK   83  A    between atoms: _191  and  _194
REMARK   84  A    between atoms: _194  and  _195
REMARK   85  A    between atoms: _198  and  _200
REMARK   86  A    between atoms: _200  and  _201
REMARK   87  A    between atoms: _200  and  _203
REMARK   88  A    between atoms: _203  and  _204
REMARK   89  A    between atoms: _208  and  _209
REMARK   90  A    between atoms: _214  and  _216
REMARK   91  A    between atoms: _216  and  _217
REMARK   92  A    between atoms: _216  and  _219
REMARK   93  A    between atoms: _222  and  _224
REMARK   94  A    between atoms: _224  and  _225
REMARK   95  A    between atoms: _224  and  _227
REMARK   96  A    between atoms: _227  and  _228
REMARK   97  A    between atoms: _233  and  _235
REMARK   98  A    between atoms: _235  and  _236
REMARK   99  A    between atoms: _235  and  _238
REMARK  100  A    between atoms: _238  and  _239
REMARK  101  A    between atoms: _242  and  _244
REMARK  102  A    between atoms: _244  and  _245
REMARK  103  A    between atoms: _244  and  _247
REMARK  104  A    between atoms: _247  and  _248
REMARK  105  A    between atoms: _251  and  _253
REMARK  106  A    between atoms: _253  and  _254
REMARK  107  A    between atoms: _256  and  _258
REMARK  108  A    between atoms: _258  and  _259
REMARK  109  A    between atoms: _258  and  _261
REMARK  110  A    between atoms: _261  and  _262
REMARK  111  A    between atoms: _262  and  _263
REMARK  112  A    between atoms: _263  and  _264
REMARK  113  A    between atoms: _273  and  _275
REMARK  114  A    between atoms: _275  and  _276
REMARK  115  A    between atoms: _275  and  _278
REMARK  116  A    between atoms: _278  and  _279
REMARK  117  A    between atoms: _284  and  _286
REMARK  118  A    between atoms: _286  and  _287
REMARK  119  A    between atoms: _286  and  _289
REMARK  120  A    between atoms: _289  and  _290
REMARK  121  A    between atoms: _290  and  _291
REMARK  122  A    between atoms: _291  and  _292
REMARK  123  A    between atoms: _301  and  _303
REMARK  124  A    between atoms: _303  and  _304
REMARK  125  A    between atoms: _303  and  _306
REMARK  126  A    between atoms: _306  and  _307
REMARK  127  A    between atoms: _310  and  _312
REMARK  128  A    between atoms: _312  and  _313
REMARK  129  A    between atoms: _312  and  _315
REMARK  130  A    between atoms: _315  and  _316
REMARK  131  A    between atoms: _319  and  _321
REMARK  132  A    between atoms: _321  and  _322
REMARK  133  A    between atoms: _321  and  _324
REMARK  134  A    between atoms: _324  and  _325
REMARK  135  A    between atoms: _328  and  _330
REMARK  136  A    between atoms: _330  and  _331
REMARK  137  A    between atoms: _330  and  _333
REMARK  138  A    between atoms: _333  and  _334
REMARK  139  A    between atoms: _337  and  _339
REMARK  140  A    between atoms: _339  and  _340
REMARK  141  A    between atoms: _342  and  _344
REMARK  142  A    between atoms: _344  and  _345
REMARK  143  A    between atoms: _348  and  _350
REMARK  144  A    between atoms: _350  and  _351
REMARK  145  A    between atoms: _350  and  _353
REMARK  146  A    between atoms: _353  and  _354
REMARK  147  A    between atoms: _357  and  _359
REMARK  148  A    between atoms: _359  and  _360
REMARK  149  A    between atoms: _359  and  _362
REMARK  150  A    between atoms: _362  and  _363
REMARK  151  A    between atoms: _366  and  _368
REMARK  152  A    between atoms: _368  and  _369
REMARK  153  A    between atoms: _368  and  _371
REMARK  154  A    between atoms: _371  and  _372
REMARK  155  A    between atoms: _375  and  _377
REMARK  156  A    between atoms: _377  and  _378
REMARK  157  A    between atoms: _377  and  _380
REMARK  158  A    between atoms: _383  and  _385
REMARK  159  A    between atoms: _385  and  _386
REMARK  160  A    between atoms: _385  and  _388
REMARK  161  A    between atoms: _388  and  _389
REMARK  162  A    between atoms: _389  and  _390
REMARK  163  A    between atoms: _390  and  _391
REMARK  164  A    between atoms: _391  and  _392
REMARK  165  A    between atoms: _396  and  _398
REMARK  166  A    between atoms: _398  and  _399
REMARK  167  A    between atoms: _398  and  _401
REMARK  168  A    between atoms: _401  and  _402
REMARK  169  A    between atoms: _402  and  _403
REMARK  170  A    between atoms: _405  and  _407
REMARK  171  A    between atoms: _407  and  _408
REMARK  172  A    between atoms: _407  and  _410
REMARK  173  A    between atoms: _410  and  _411
REMARK  174  A    between atoms: _414  and  _416
REMARK  175  A    between atoms: _416  and  _417
REMARK  176  A    between atoms: _419  and  _421
REMARK  177  A    between atoms: _421  and  _422
REMARK  178  A    between atoms: _424  and  _426
REMARK  179  A    between atoms: _426  and  _427
REMARK  180  A    between atoms: _426  and  _429
REMARK  181  A    between atoms: _429  and  _430
REMARK  182  A    between atoms: _433  and  _435
REMARK  183  A    between atoms: _435  and  _436
REMARK  184  A    between atoms: _438  and  _440
REMARK  185  A    between atoms: _440  and  _441
REMARK  186  A    between atoms: _443  and  _445
REMARK  187  A    between atoms: _445  and  _446
REMARK  188  A    between atoms: _445  and  _448
REMARK  189  A    between atoms: _448  and  _449
REMARK  190  A    between atoms: _455  and  _457
REMARK  191  A    between atoms: _457  and  _458
REMARK  192  A    between atoms: _457  and  _460
REMARK  193  A    between atoms: _460  and  _461
REMARK  194  A    between atoms: _464  and  _466
REMARK  195  A    between atoms: _466  and  _467
REMARK  196  A    between atoms: _466  and  _469
REMARK  197  A    between atoms: _469  and  _470
REMARK  198  A    between atoms: _473  and  _475
REMARK  199  A    between atoms: _475  and  _476
REMARK  200  A    between atoms: _475  and  _478
REMARK  201  A    between atoms: _478  and  _479
REMARK  202  A    between atoms: _483  and  _484
REMARK  203  A    between atoms: _489  and  _491
REMARK  204  A    between atoms: _491  and  _492
REMARK  205  A    between atoms: _491  and  _494
REMARK  206  A    between atoms: _497  and  _499
REMARK  207  A    between atoms: _499  and  _500
REMARK  208  A    between atoms: _499  and  _502
REMARK  209  A    between atoms: _502  and  _503
REMARK  210  A    between atoms: _508  and  _510
REMARK  211  A    between atoms: _510  and  _511
REMARK  212  A    between atoms: _510  and  _513
REMARK  213  A    between atoms: _513  and  _514
REMARK  214  A    between atoms: _517  and  _519
REMARK  215  A    between atoms: _519  and  _520
REMARK  216  A    between atoms: _519  and  _522
REMARK  217  A    between atoms: _522  and  _523
REMARK  218  A    between atoms: _526  and  _528
REMARK  219  A    between atoms: _528  and  _529
REMARK  220  A    between atoms: _531  and  _533
REMARK  221  A    between atoms: _533  and  _534
REMARK  222  A    between atoms: _533  and  _536
REMARK  223  A    between atoms: _536  and  _537
REMARK  224  A    between atoms: _537  and  _538
REMARK  225  A    between atoms: _538  and  _539
REMARK  226  A    between atoms: _548  and  _550
REMARK  227  A    between atoms: _550  and  _551
REMARK  228  A    between atoms: _550  and  _553
REMARK  229  A    between atoms: _553  and  _554
REMARK                            x       y       z     vdW  Elec       q    Type
REMARK                         _______ _______ _______ _____ _____    ______ ____
ROOT
ATOM      1  O   HOH     1       8.640  15.000  19.196  0.00  0.00    +0.000 OA
ENDROOT
TORSDOF 0
REMARK  Name = ../refined-set-2016/2i4d/2i4d_pocket.pdb
REMARK  229 active torsions:
REMARK  status: ('A' for Active; 'I' for Inactive)
REMARK    1  A    between atoms: _1  and  _3
REMARK    2  A    between atoms: _3  and  _4
REMARK    3  A    between atoms: _3  and  _6
REMARK    4  A    between atoms: _6  and  _7
REMARK    5  A    between atoms: _7  and  _8
REMARK    6  A    between atoms: _8  and  _9
REMARK    7  A    between atoms: _18  and  _20
REMARK    8  A    between atoms: _20  and  _21
REMARK    9  A    between atoms: _20  and  _23
REMARK   10  A    between atoms: _23  and  _24
REMARK   11  A    between atoms: _27  and  _29
REMARK   12  A    between atoms: _29  and  _30
REMARK   13  A    between atoms: _29  and  _32
REMARK   14  A    between atoms: _32  and  _33
REMARK   15  A    between atoms: _36  and  _38
REMARK   16  A    between atoms: _38  and  _39
REMARK   17  A    between atoms: _38  and  _41
REMARK   18  A    between atoms: _41  and  _42
REMARK   19  A    between atoms: _45  and  _47
REMARK   20  A    between atoms: _47  and  _48
REMARK   21  A    between atoms: _47  and  _50
REMARK   22  A    between atoms: _50  and  _51
REMARK   23  A    between atoms: _54  and  _56
REMARK   24  A    between atoms: _56  and  _57
REMARK   25  A    between atoms: _59  and  _61
REMARK   26  A    between atoms: _61  and  _62
REMARK   27  A    between atoms: _65  and  _67
REMARK   28  A    between atoms: _67  and  _68
REMARK   29  A    between atoms: _67  and  _70
REMARK   30  A    between atoms: _70  and  _71
REMARK   31  A    between atoms: _74  and  _76
REMARK   32  A    between atoms: _76  and  _77
REMARK   33  A    between atoms: _76  and  _79
REMARK   34  A    between atoms: _79  and  _80
REMARK   35  A    between atoms: _83  and  _85
REMARK   36  A    between atoms: _85  and  _86
REMARK   37  A    between atoms: _85  and  _88
REMARK   38  A    between atoms: _88  and  _89
REMARK   39  A    between atoms: _92  and  _94
REMARK   40  A    between atoms: _94  and  _95
REMARK   41  A    between atoms: _94  and  _97
REMARK   42  A    between atoms: _100  and  _102
REMARK   43  A    between atoms: _102  and  _103
REMARK   44  A    between atoms: _102  and  _105
REMARK   45  A    between atoms: _105  and  _106
REMARK   46  A    between atoms: _106  and  _107
REMARK   47  A    between atoms: _107  and  _108
REMARK   48  A    between atoms: _108  and  _109
REMARK   49  A    between atoms: _113  and  _115
REMARK   50  A    between atoms: _115  and  _116
REMARK   51  A    between atoms: _115  and  _118
REMARK   52  A    between atoms: _118  and  _119
REMARK   53  A    between atoms: _119  and  _120
REMARK   54  A    between atoms: _122  and  _124
REMARK   55  A    between atoms: _124  and  _125
REMARK   56  A    between atoms: _124  and  _127
REMARK   57  A    between atoms: _127  and  _128
REMARK   58  A    between atoms: _131  and  _133
REMARK   59  A    between atoms: _133  and  _134
REMARK   60  A    between atoms: _136  and  _138
REMARK   61  A    between atoms: _138  and  _139
REMARK   62  A    between atoms: _141  and  _143
REMARK   63  A    between atoms: _143  and  _144
REMARK   64  A    between atoms: _143  and  _146
REMARK   65  A    between atoms: _146  and  _147
REMARK   66  A    between atoms: _150  and  _152
REMARK   67  A    between atoms: _152  and  _153
REMARK   68  A    between atoms: _155  and  _157
REMARK   69  A    between atoms: _157  and  _158
REMARK   70  A    between atoms: _160  and  _162
REMARK   71  A    between atoms: _162  and  _163
REMARK   72  A    between atoms: _162  and  _165
REMARK   73  A    between atoms: _165  and  _166
REMARK   74  A    between atoms: _172  and  _174
REMARK   75  A    between atoms: _174  and  _175
REMARK   76  A    between atoms: _174  and  _177
REMARK   77  A    between atoms: _177  and  _178
REMARK   78  A    between atoms: _181  and  _183
REMARK   79  A    between atoms: _183  and  _184
REMARK   80  A    between atoms: _183  and  _186
REMARK   81  A    between atoms: _189  and  _191
REMARK   82  A    between atoms: _191  and  _192
REMARK   83  A    between atoms: _191  and  _194
REMARK   84  A    between atoms: _194  and  _195
REMARK   85  A    between atoms: _198  and  _200
REMARK   86  A    between atoms: _200  and  _201
REMARK   87  A    between atoms: _200  and  _203
REMARK   88  A    between atoms: _203  and  _204
REMARK   89  A    between atoms: _208  and  _209
REMARK   90  A    between atoms: _214  and  _216
REMARK   91  A    between atoms: _216  and  _217
REMARK   92  A    between atoms: _216  and  _219
REMARK   93  A    between atoms: _222  and  _224
REMARK   94  A    between atoms: _224  and  _225
REMARK   95  A    between atoms: _224  and  _227
REMARK   96  A    between atoms: _227  and  _228
REMARK   97  A    between atoms: _233  and  _235
REMARK   98  A    between atoms: _235  and  _236
REMARK   99  A    between atoms: _235  and  _238
REMARK  100  A    between atoms: _238  and  _239
REMARK  101  A    between atoms: _242  and  _244
REMARK  102  A    between atoms: _244  and  _245
REMARK  103  A    between atoms: _244  and  _247
REMARK  104  A    between atoms: _247  and  _248
REMARK  105  A    between atoms: _251  and  _253
REMARK  106  A    between atoms: _253  and  _254
REMARK  107  A    between atoms: _256  and  _258
REMARK  108  A    between atoms: _258  and  _259
REMARK  109  A    between atoms: _258  and  _261
REMARK  110  A    between atoms: _261  and  _262
REMARK  111  A    between atoms: _262  and  _263
REMARK  112  A    between atoms: _263  and  _264
REMARK  113  A    between atoms: _273  and  _275
REMARK  114  A    between atoms: _275  and  _276
REMARK  115  A    between atoms: _275  and  _278
REMARK  116  A    between atoms: _278  and  _279
REMARK  117  A    between atoms: _284  and  _286
REMARK  118  A    between atoms: _286  and  _287
REMARK  119  A    between atoms: _286  and  _289
REMARK  120  A    between atoms: _289  and  _290
REMARK  121  A    between atoms: _290  and  _291
REMARK  122  A    between atoms: _291  and  _292
REMARK  123  A    between atoms: _301  and  _303
REMARK  124  A    between atoms: _303  and  _304
REMARK  125  A    between atoms: _303  and  _306
REMARK  126  A    between atoms: _306  and  _307
REMARK  127  A    between atoms: _310  and  _312
REMARK  128  A    between atoms: _312  and  _313
REMARK  129  A    between atoms: _312  and  _315
REMARK  130  A    between atoms: _315  and  _316
REMARK  131  A    between atoms: _319  and  _321
REMARK  132  A    between atoms: _321  and  _322
REMARK  133  A    between atoms: _321  and  _324
REMARK  134  A    between atoms: _324  and  _325
REMARK  135  A    between atoms: _328  and  _330
REMARK  136  A    between atoms: _330  and  _331
REMARK  137  A    between atoms: _330  and  _333
REMARK  138  A    between atoms: _333  and  _334
REMARK  139  A    between atoms: _337  and  _339
REMARK  140  A    between atoms: _339  and  _340
REMARK  141  A    between atoms: _342  and  _344
REMARK  142  A    between atoms: _344  and  _345
REMARK  143  A    between atoms: _348  and  _350
REMARK  144  A    between atoms: _350  and  _351
REMARK  145  A    between atoms: _350  and  _353
REMARK  146  A    between atoms: _353  and  _354
REMARK  147  A    between atoms: _357  and  _359
REMARK  148  A    between atoms: _359  and  _360
REMARK  149  A    between atoms: _359  and  _362
REMARK  150  A    between atoms: _362  and  _363
REMARK  151  A    between atoms: _366  and  _368
REMARK  152  A    between atoms: _368  and  _369
REMARK  153  A    between atoms: _368  and  _371
REMARK  154  A    between atoms: _371  and  _372
REMARK  155  A    between atoms: _375  and  _377
REMARK  156  A    between atoms: _377  and  _378
REMARK  157  A    between atoms: _377  and  _380
REMARK  158  A    between atoms: _383  and  _385
REMARK  159  A    between atoms: _385  and  _386
REMARK  160  A    between atoms: _385  and  _388
REMARK  161  A    between atoms: _388  and  _389
REMARK  162  A    between atoms: _389  and  _390
REMARK  163  A    between atoms: _390  and  _391
REMARK  164  A    between atoms: _391  and  _392
REMARK  165  A    between atoms: _396  and  _398
REMARK  166  A    between atoms: _398  and  _399
REMARK  167  A    between atoms: _398  and  _401
REMARK  168  A    between atoms: _401  and  _402
REMARK  169  A    between atoms: _402  and  _403
REMARK  170  A    between atoms: _405  and  _407
REMARK  171  A    between atoms: _407  and  _408
REMARK  172  A    between atoms: _407  and  _410
REMARK  173  A    between atoms: _410  and  _411
REMARK  174  A    between atoms: _414  and  _416
REMARK  175  A    between atoms: _416  and  _417
REMARK  176  A    between atoms: _419  and  _421
REMARK  177  A    between atoms: _421  and  _422
REMARK  178  A    between atoms: _424  and  _426
REMARK  179  A    between atoms: _426  and  _427
REMARK  180  A    between atoms: _426  and  _429
REMARK  181  A    between atoms: _429  and  _430
REMARK  182  A    between atoms: _433  and  _435
REMARK  183  A    between atoms: _435  and  _436
REMARK  184  A    between atoms: _438  and  _440
REMARK  185  A    between atoms: _440  and  _441
REMARK  186  A    between atoms: _443  and  _445
REMARK  187  A    between atoms: _445  and  _446
REMARK  188  A    between atoms: _445  and  _448
REMARK  189  A    between atoms: _448  and  _449
REMARK  190  A    between atoms: _455  and  _457
REMARK  191  A    between atoms: _457  and  _458
REMARK  192  A    between atoms: _457  and  _460
REMARK  193  A    between atoms: _460  and  _461
REMARK  194  A    between atoms: _464  and  _466
REMARK  195  A    between atoms: _466  and  _467
REMARK  196  A    between atoms: _466  and  _469
REMARK  197  A    between atoms: _469  and  _470
REMARK  198  A    between atoms: _473  and  _475
REMARK  199  A    between atoms: _475  and  _476
REMARK  200  A    between atoms: _475  and  _478
REMARK  201  A    between atoms: _478  and  _479
REMARK  202  A    between atoms: _483  and  _484
REMARK  203  A    between atoms: _489  and  _491
REMARK  204  A    between atoms: _491  and  _492
REMARK  205  A    between atoms: _491  and  _494
REMARK  206  A    between atoms: _497  and  _499
REMARK  207  A    between atoms: _499  and  _500
REMARK  208  A    between atoms: _499  and  _502
REMARK  209  A    between atoms: _502  and  _503
REMARK  210  A    between atoms: _508  and  _510
REMARK  211  A    between atoms: _510  and  _511
REMARK  212  A    between atoms: _510  and  _513
REMARK  213  A    between atoms: _513  and  _514
REMARK  214  A    between atoms: _517  and  _519
REMARK  215  A    between atoms: _519  and  _520
REMARK  216  A    between atoms: _519  and  _522
REMARK  217  A    between atoms: _522  and  _523
REMARK  218  A    between atoms: _526  and  _528
REMARK  219  A    between atoms: _528  and  _529
REMARK  220  A    between atoms: _531  and  _533
REMARK  221  A    between atoms: _533  and  _534
REMARK  222  A    between atoms: _533  and  _536
REMARK  223  A    between atoms: _536  and  _537
REMARK  224  A    between atoms: _537  and  _538
REMARK  225  A    between atoms: _538  and  _539
REMARK  226  A    between atoms: _548  and  _550
REMARK  227  A    between atoms: _550  and  _551
REMARK  228  A    between atoms: _550  and  _553
REMARK  229  A    between atoms: _553  and  _554
REMARK                            x       y       z     vdW  Elec       q    Type
REMARK                         _______ _______ _______ _____ _____    ______ ____
ROOT
ATOM      1  O   HOH     1       3.822  19.460  22.998  0.00  0.00    +0.000 OA
ENDROOT
TORSDOF 0
REMARK  Name = ../refined-set-2016/2i4d/2i4d_pocket.pdb
REMARK  229 active torsions:
REMARK  status: ('A' for Active; 'I' for Inactive)
REMARK    1  A    between atoms: _1  and  _3
REMARK    2  A    between atoms: _3  and  _4
REMARK    3  A    between atoms: _3  and  _6
REMARK    4  A    between atoms: _6  and  _7
REMARK    5  A    between atoms: _7  and  _8
REMARK    6  A    between atoms: _8  and  _9
REMARK    7  A    between atoms: _18  and  _20
REMARK    8  A    between atoms: _20  and  _21
REMARK    9  A    between atoms: _20  and  _23
REMARK   10  A    between atoms: _23  and  _24
REMARK   11  A    between atoms: _27  and  _29
REMARK   12  A    between atoms: _29  and  _30
REMARK   13  A    between atoms: _29  and  _32
REMARK   14  A    between atoms: _32  and  _33
REMARK   15  A    between atoms: _36  and  _38
REMARK   16  A    between atoms: _38  and  _39
REMARK   17  A    between atoms: _38  and  _41
REMARK   18  A    between atoms: _41  and  _42
REMARK   19  A    between atoms: _45  and  _47
REMARK   20  A    between atoms: _47  and  _48
REMARK   21  A    between atoms: _47  and  _50
REMARK   22  A    between atoms: _50  and  _51
REMARK   23  A    between atoms: _54  and  _56
REMARK   24  A    between atoms: _56  and  _57
REMARK   25  A    between atoms: _59  and  _61
REMARK   26  A    between atoms: _61  and  _62
REMARK   27  A    between atoms: _65  and  _67
REMARK   28  A    between atoms: _67  and  _68
REMARK   29  A    between atoms: _67  and  _70
REMARK   30  A    between atoms: _70  and  _71
REMARK   31  A    between atoms: _74  and  _76
REMARK   32  A    between atoms: _76  and  _77
REMARK   33  A    between atoms: _76  and  _79
REMARK   34  A    between atoms: _79  and  _80
REMARK   35  A    between atoms: _83  and  _85
REMARK   36  A    between atoms: _85  and  _86
REMARK   37  A    between atoms: _85  and  _88
REMARK   38  A    between atoms: _88  and  _89
REMARK   39  A    between atoms: _92  and  _94
REMARK   40  A    between atoms: _94  and  _95
REMARK   41  A    between atoms: _94  and  _97
REMARK   42  A    between atoms: _100  and  _102
REMARK   43  A    between atoms: _102  and  _103
REMARK   44  A    between atoms: _102  and  _105
REMARK   45  A    between atoms: _105  and  _106
REMARK   46  A    between atoms: _106  and  _107
REMARK   47  A    between atoms: _107  and  _108
REMARK   48  A    between atoms: _108  and  _109
REMARK   49  A    between atoms: _113  and  _115
REMARK   50  A    between atoms: _115  and  _116
REMARK   51  A    between atoms: _115  and  _118
REMARK   52  A    between atoms: _118  and  _119
REMARK   53  A    between atoms: _119  and  _120
REMARK   54  A    between atoms: _122  and  _124
REMARK   55  A    between atoms: _124  and  _125
REMARK   56  A    between atoms: _124  and  _127
REMARK   57  A    between atoms: _127  and  _128
REMARK   58  A    between atoms: _131  and  _133
REMARK   59  A    between atoms: _133  and  _134
REMARK   60  A    between atoms: _136  and  _138
REMARK   61  A    between atoms: _138  and  _139
REMARK   62  A    between atoms: _141  and  _143
REMARK   63  A    between atoms: _143  and  _144
REMARK   64  A    between atoms: _143  and  _146
REMARK   65  A    between atoms: _146  and  _147
REMARK   66  A    between atoms: _150  and  _152
REMARK   67  A    between atoms: _152  and  _153
REMARK   68  A    between atoms: _155  and  _157
REMARK   69  A    between atoms: _157  and  _158
REMARK   70  A    between atoms: _160  and  _162
REMARK   71  A    between atoms: _162  and  _163
REMARK   72  A    between atoms: _162  and  _165
REMARK   73  A    between atoms: _165  and  _166
REMARK   74  A    between atoms: _172  and  _174
REMARK   75  A    between atoms: _174  and  _175
REMARK   76  A    between atoms: _174  and  _177
REMARK   77  A    between atoms: _177  and  _178
REMARK   78  A    between atoms: _181  and  _183
REMARK   79  A    between atoms: _183  and  _184
REMARK   80  A    between atoms: _183  and  _186
REMARK   81  A    between atoms: _189  and  _191
REMARK   82  A    between atoms: _191  and  _192
REMARK   83  A    between atoms: _191  and  _194
REMARK   84  A    between atoms: _194  and  _195
REMARK   85  A    between atoms: _198  and  _200
REMARK   86  A    between atoms: _200  and  _201
REMARK   87  A    between atoms: _200  and  _203
REMARK   88  A    between atoms: _203  and  _204
REMARK   89  A    between atoms: _208  and  _209
REMARK   90  A    between atoms: _214  and  _216
REMARK   91  A    between atoms: _216  and  _217
REMARK   92  A    between atoms: _216  and  _219
REMARK   93  A    between atoms: _222  and  _224
REMARK   94  A    between atoms: _224  and  _225
REMARK   95  A    between atoms: _224  and  _227
REMARK   96  A    between atoms: _227  and  _228
REMARK   97  A    between atoms: _233  and  _235
REMARK   98  A    between atoms: _235  and  _236
REMARK   99  A    between atoms: _235  and  _238
REMARK  100  A    between atoms: _238  and  _239
REMARK  101  A    between atoms: _242  and  _244
REMARK  102  A    between atoms: _244  and  _245
REMARK  103  A    between atoms: _244  and  _247
REMARK  104  A    between atoms: _247  and  _248
REMARK  105  A    between atoms: _251  and  _253
REMARK  106  A    between atoms: _253  and  _254
REMARK  107  A    between atoms: _256  and  _258
REMARK  108  A    between atoms: _258  and  _259
REMARK  109  A    between atoms: _258  and  _261
REMARK  110  A    between atoms: _261  and  _262
REMARK  111  A    between atoms: _262  and  _263
REMARK  112  A    between atoms: _263  and  _264
REMARK  113  A    between atoms: _273  and  _275
REMARK  114  A    between atoms: _275  and  _276
REMARK  115  A    between atoms: _275  and  _278
REMARK  116  A    between atoms: _278  and  _279
REMARK  117  A    between atoms: _284  and  _286
REMARK  118  A    between atoms: _286  and  _287
REMARK  119  A    between atoms: _286  and  _289
REMARK  120  A    between atoms: _289  and  _290
REMARK  121  A    between atoms: _290  and  _291
REMARK  122  A    between atoms: _291  and  _292
REMARK  123  A    between atoms: _301  and  _303
REMARK  124  A    between atoms: _303  and  _304
REMARK  125  A    between atoms: _303  and  _306
REMARK  126  A    between atoms: _306  and  _307
REMARK  127  A    between atoms: _310  and  _312
REMARK  128  A    between atoms: _312  and  _313
REMARK  129  A    between atoms: _312  and  _315
REMARK  130  A    between atoms: _315  and  _316
REMARK  131  A    between atoms: _319  and  _321
REMARK  132  A    between atoms: _321  and  _322
REMARK  133  A    between atoms: _321  and  _324
REMARK  134  A    between atoms: _324  and  _325
REMARK  135  A    between atoms: _328  and  _330
REMARK  136  A    between atoms: _330  and  _331
REMARK  137  A    between atoms: _330  and  _333
REMARK  138  A    between atoms: _333  and  _334
REMARK  139  A    between atoms: _337  and  _339
REMARK  140  A    between atoms: _339  and  _340
REMARK  141  A    between atoms: _342  and  _344
REMARK  142  A    between atoms: _344  and  _345
REMARK  143  A    between atoms: _348  and  _350
REMARK  144  A    between atoms: _350  and  _351
REMARK  145  A    between atoms: _350  and  _353
REMARK  146  A    between atoms: _353  and  _354
REMARK  147  A    between atoms: _357  and  _359
REMARK  148  A    between atoms: _359  and  _360
REMARK  149  A    between atoms: _359  and  _362
REMARK  150  A    between atoms: _362  and  _363
REMARK  151  A    between atoms: _366  and  _368
REMARK  152  A    between atoms: _368  and  _369
REMARK  153  A    between atoms: _368  and  _371
REMARK  154  A    between atoms: _371  and  _372
REMARK  155  A    between atoms: _375  and  _377
REMARK  156  A    between atoms: _377  and  _378
REMARK  157  A    between atoms: _377  and  _380
REMARK  158  A    between atoms: _383  and  _385
REMARK  159  A    between atoms: _385  and  _386
REMARK  160  A    between atoms: _385  and  _388
REMARK  161  A    between atoms: _388  and  _389
REMARK  162  A    between atoms: _389  and  _390
REMARK  163  A    between atoms: _390  and  _391
REMARK  164  A    between atoms: _391  and  _392
REMARK  165  A    between atoms: _396  and  _398
REMARK  166  A    between atoms: _398  and  _399
REMARK  167  A    between atoms: _398  and  _401
REMARK  168  A    between atoms: _401  and  _402
REMARK  169  A    between atoms: _402  and  _403
REMARK  170  A    between atoms: _405  and  _407
REMARK  171  A    between atoms: _407  and  _408
REMARK  172  A    between atoms: _407  and  _410
REMARK  173  A    between atoms: _410  and  _411
REMARK  174  A    between atoms: _414  and  _416
REMARK  175  A    between atoms: _416  and  _417
REMARK  176  A    between atoms: _419  and  _421
REMARK  177  A    between atoms: _421  and  _422
REMARK  178  A    between atoms: _424  and  _426
REMARK  179  A    between atoms: _426  and  _427
REMARK  180  A    between atoms: _426  and  _429
REMARK  181  A    between atoms: _429  and  _430
REMARK  182  A    between atoms: _433  and  _435
REMARK  183  A    between atoms: _435  and  _436
REMARK  184  A    between atoms: _438  and  _440
REMARK  185  A    between atoms: _440  and  _441
REMARK  186  A    between atoms: _443  and  _445
REMARK  187  A    between atoms: _445  and  _446
REMARK  188  A    between atoms: _445  and  _448
REMARK  189  A    between atoms: _448  and  _449
REMARK  190  A    between atoms: _455  and  _457
REMARK  191  A    between atoms: _457  and  _458
REMARK  192  A    between atoms: _457  and  _460
REMARK  193  A    between atoms: _460  and  _461
REMARK  194  A    between atoms: _464  and  _466
REMARK  195  A    between atoms: _466  and  _467
REMARK  196  A    between atoms: _466  and  _469
REMARK  197  A    between atoms: _469  and  _470
REMARK  198  A    between atoms: _473  and  _475
REMARK  199  A    between atoms: _475  and  _476
REMARK  200  A    between atoms: _475  and  _478
REMARK  201  A    between atoms: _478  and  _479
REMARK  202  A    between atoms: _483  and  _484
REMARK  203  A    between atoms: _489  and  _491
REMARK  204  A    between atoms: _491  and  _492
REMARK  205  A    between atoms: _491  and  _494
REMARK  206  A    between atoms: _497  and  _499
REMARK  207  A    between atoms: _499  and  _500
REMARK  208  A    between atoms: _499  and  _502
REMARK  209  A    between atoms: _502  and  _503
REMARK  210  A    between atoms: _508  and  _510
REMARK  211  A    between atoms: _510  and  _511
REMARK  212  A    between atoms: _510  and  _513
REMARK  213  A    between atoms: _513  and  _514
REMARK  214  A    between atoms: _517  and  _519
REMARK  215  A    between atoms: _519  and  _520
REMARK  216  A    between atoms: _519  and  _522
REMARK  217  A    between atoms: _522  and  _523
REMARK  218  A    between atoms: _526  and  _528
REMARK  219  A    between atoms: _528  and  _529
REMARK  220  A    between atoms: _531  and  _533
REMARK  221  A    between atoms: _533  and  _534
REMARK  222  A    between atoms: _533  and  _536
REMARK  223  A    between atoms: _536  and  _537
REMARK  224  A    between atoms: _537  and  _538
REMARK  225  A    between atoms: _538  and  _539
REMARK  226  A    between atoms: _548  and  _550
REMARK  227  A    between atoms: _550  and  _551
REMARK  228  A    between atoms: _550  and  _553
REMARK  229  A    between atoms: _553  and  _554
REMARK                            x       y       z     vdW  Elec       q    Type
REMARK                         _______ _______ _______ _____ _____    ______ ____
ROOT
ATOM      1  O   HOH     1      10.413  15.139  16.906  0.00  0.00    +0.000 OA
ENDROOT
TORSDOF 0
REMARK  Name = ../refined-set-2016/2i4d/2i4d_pocket.pdb
REMARK  229 active torsions:
REMARK  status: ('A' for Active; 'I' for Inactive)
REMARK    1  A    between atoms: _1  and  _3
REMARK    2  A    between atoms: _3  and  _4
REMARK    3  A    between atoms: _3  and  _6
REMARK    4  A    between atoms: _6  and  _7
REMARK    5  A    between atoms: _7  and  _8
REMARK    6  A    between atoms: _8  and  _9
REMARK    7  A    between atoms: _18  and  _20
REMARK    8  A    between atoms: _20  and  _21
REMARK    9  A    between atoms: _20  and  _23
REMARK   10  A    between atoms: _23  and  _24
REMARK   11  A    between atoms: _27  and  _29
REMARK   12  A    between atoms: _29  and  _30
REMARK   13  A    between atoms: _29  and  _32
REMARK   14  A    between atoms: _32  and  _33
REMARK   15  A    between atoms: _36  and  _38
REMARK   16  A    between atoms: _38  and  _39
REMARK   17  A    between atoms: _38  and  _41
REMARK   18  A    between atoms: _41  and  _42
REMARK   19  A    between atoms: _45  and  _47
REMARK   20  A    between atoms: _47  and  _48
REMARK   21  A    between atoms: _47  and  _50
REMARK   22  A    between atoms: _50  and  _51
REMARK   23  A    between atoms: _54  and  _56
REMARK   24  A    between atoms: _56  and  _57
REMARK   25  A    between atoms: _59  and  _61
REMARK   26  A    between atoms: _61  and  _62
REMARK   27  A    between atoms: _65  and  _67
REMARK   28  A    between atoms: _67  and  _68
REMARK   29  A    between atoms: _67  and  _70
REMARK   30  A    between atoms: _70  and  _71
REMARK   31  A    between atoms: _74  and  _76
REMARK   32  A    between atoms: _76  and  _77
REMARK   33  A    between atoms: _76  and  _79
REMARK   34  A    between atoms: _79  and  _80
REMARK   35  A    between atoms: _83  and  _85
REMARK   36  A    between atoms: _85  and  _86
REMARK   37  A    between atoms: _85  and  _88
REMARK   38  A    between atoms: _88  and  _89
REMARK   39  A    between atoms: _92  and  _94
REMARK   40  A    between atoms: _94  and  _95
REMARK   41  A    between atoms: _94  and  _97
REMARK   42  A    between atoms: _100  and  _102
REMARK   43  A    between atoms: _102  and  _103
REMARK   44  A    between atoms: _102  and  _105
REMARK   45  A    between atoms: _105  and  _106
REMARK   46  A    between atoms: _106  and  _107
REMARK   47  A    between atoms: _107  and  _108
REMARK   48  A    between atoms: _108  and  _109
REMARK   49  A    between atoms: _113  and  _115
REMARK   50  A    between atoms: _115  and  _116
REMARK   51  A    between atoms: _115  and  _118
REMARK   52  A    between atoms: _118  and  _119
REMARK   53  A    between atoms: _119  and  _120
REMARK   54  A    between atoms: _122  and  _124
REMARK   55  A    between atoms: _124  and  _125
REMARK   56  A    between atoms: _124  and  _127
REMARK   57  A    between atoms: _127  and  _128
REMARK   58  A    between atoms: _131  and  _133
REMARK   59  A    between atoms: _133  and  _134
REMARK   60  A    between atoms: _136  and  _138
REMARK   61  A    between atoms: _138  and  _139
REMARK   62  A    between atoms: _141  and  _143
REMARK   63  A    between atoms: _143  and  _144
REMARK   64  A    between atoms: _143  and  _146
REMARK   65  A    between atoms: _146  and  _147
REMARK   66  A    between atoms: _150  and  _152
REMARK   67  A    between atoms: _152  and  _153
REMARK   68  A    between atoms: _155  and  _157
REMARK   69  A    between atoms: _157  and  _158
REMARK   70  A    between atoms: _160  and  _162
REMARK   71  A    between atoms: _162  and  _163
REMARK   72  A    between atoms: _162  and  _165
REMARK   73  A    between atoms: _165  and  _166
REMARK   74  A    between atoms: _172  and  _174
REMARK   75  A    between atoms: _174  and  _175
REMARK   76  A    between atoms: _174  and  _177
REMARK   77  A    between atoms: _177  and  _178
REMARK   78  A    between atoms: _181  and  _183
REMARK   79  A    between atoms: _183  and  _184
REMARK   80  A    between atoms: _183  and  _186
REMARK   81  A    between atoms: _189  and  _191
REMARK   82  A    between atoms: _191  and  _192
REMARK   83  A    between atoms: _191  and  _194
REMARK   84  A    between atoms: _194  and  _195
REMARK   85  A    between atoms: _198  and  _200
REMARK   86  A    between atoms: _200  and  _201
REMARK   87  A    between atoms: _200  and  _203
REMARK   88  A    between atoms: _203  and  _204
REMARK   89  A    between atoms: _208  and  _209
REMARK   90  A    between atoms: _214  and  _216
REMARK   91  A    between atoms: _216  and  _217
REMARK   92  A    between atoms: _216  and  _219
REMARK   93  A    between atoms: _222  and  _224
REMARK   94  A    between atoms: _224  and  _225
REMARK   95  A    between atoms: _224  and  _227
REMARK   96  A    between atoms: _227  and  _228
REMARK   97  A    between atoms: _233  and  _235
REMARK   98  A    between atoms: _235  and  _236
REMARK   99  A    between atoms: _235  and  _238
REMARK  100  A    between atoms: _238  and  _239
REMARK  101  A    between atoms: _242  and  _244
REMARK  102  A    between atoms: _244  and  _245
REMARK  103  A    between atoms: _244  and  _247
REMARK  104  A    between atoms: _247  and  _248
REMARK  105  A    between atoms: _251  and  _253
REMARK  106  A    between atoms: _253  and  _254
REMARK  107  A    between atoms: _256  and  _258
REMARK  108  A    between atoms: _258  and  _259
REMARK  109  A    between atoms: _258  and  _261
REMARK  110  A    between atoms: _261  and  _262
REMARK  111  A    between atoms: _262  and  _263
REMARK  112  A    between atoms: _263  and  _264
REMARK  113  A    between atoms: _273  and  _275
REMARK  114  A    between atoms: _275  and  _276
REMARK  115  A    between atoms: _275  and  _278
REMARK  116  A    between atoms: _278  and  _279
REMARK  117  A    between atoms: _284  and  _286
REMARK  118  A    between atoms: _286  and  _287
REMARK  119  A    between atoms: _286  and  _289
REMARK  120  A    between atoms: _289  and  _290
REMARK  121  A    between atoms: _290  and  _291
REMARK  122  A    between atoms: _291  and  _292
REMARK  123  A    between atoms: _301  and  _303
REMARK  124  A    between atoms: _303  and  _304
REMARK  125  A    between atoms: _303  and  _306
REMARK  126  A    between atoms: _306  and  _307
REMARK  127  A    between atoms: _310  and  _312
REMARK  128  A    between atoms: _312  and  _313
REMARK  129  A    between atoms: _312  and  _315
REMARK  130  A    between atoms: _315  and  _316
REMARK  131  A    between atoms: _319  and  _321
REMARK  132  A    between atoms: _321  and  _322
REMARK  133  A    between atoms: _321  and  _324
REMARK  134  A    between atoms: _324  and  _325
REMARK  135  A    between atoms: _328  and  _330
REMARK  136  A    between atoms: _330  and  _331
REMARK  137  A    between atoms: _330  and  _333
REMARK  138  A    between atoms: _333  and  _334
REMARK  139  A    between atoms: _337  and  _339
REMARK  140  A    between atoms: _339  and  _340
REMARK  141  A    between atoms: _342  and  _344
REMARK  142  A    between atoms: _344  and  _345
REMARK  143  A    between atoms: _348  and  _350
REMARK  144  A    between atoms: _350  and  _351
REMARK  145  A    between atoms: _350  and  _353
REMARK  146  A    between atoms: _353  and  _354
REMARK  147  A    between atoms: _357  and  _359
REMARK  148  A    between atoms: _359  and  _360
REMARK  149  A    between atoms: _359  and  _362
REMARK  150  A    between atoms: _362  and  _363
REMARK  151  A    between atoms: _366  and  _368
REMARK  152  A    between atoms: _368  and  _369
REMARK  153  A    between atoms: _368  and  _371
REMARK  154  A    between atoms: _371  and  _372
REMARK  155  A    between atoms: _375  and  _377
REMARK  156  A    between atoms: _377  and  _378
REMARK  157  A    between atoms: _377  and  _380
REMARK  158  A    between atoms: _383  and  _385
REMARK  159  A    between atoms: _385  and  _386
REMARK  160  A    between atoms: _385  and  _388
REMARK  161  A    between atoms: _388  and  _389
REMARK  162  A    between atoms: _389  and  _390
REMARK  163  A    between atoms: _390  and  _391
REMARK  164  A    between atoms: _391  and  _392
REMARK  165  A    between atoms: _396  and  _398
REMARK  166  A    between atoms: _398  and  _399
REMARK  167  A    between atoms: _398  and  _401
REMARK  168  A    between atoms: _401  and  _402
REMARK  169  A    between atoms: _402  and  _403
REMARK  170  A    between atoms: _405  and  _407
REMARK  171  A    between atoms: _407  and  _408
REMARK  172  A    between atoms: _407  and  _410
REMARK  173  A    between atoms: _410  and  _411
REMARK  174  A    between atoms: _414  and  _416
REMARK  175  A    between atoms: _416  and  _417
REMARK  176  A    between atoms: _419  and  _421
REMARK  177  A    between atoms: _421  and  _422
REMARK  178  A    between atoms: _424  and  _426
REMARK  179  A    between atoms: _426  and  _427
REMARK  180  A    between atoms: _426  and  _429
REMARK  181  A    between atoms: _429  and  _430
REMARK  182  A    between atoms: _433  and  _435
REMARK  183  A    between atoms: _435  and  _436
REMARK  184  A    between atoms: _438  and  _440
REMARK  185  A    between atoms: _440  and  _441
REMARK  186  A    between atoms: _443  and  _445
REMARK  187  A    between atoms: _445  and  _446
REMARK  188  A    between atoms: _445  and  _448
REMARK  189  A    between atoms: _448  and  _449
REMARK  190  A    between atoms: _455  and  _457
REMARK  191  A    between atoms: _457  and  _458
REMARK  192  A    between atoms: _457  and  _460
REMARK  193  A    between atoms: _460  and  _461
REMARK  194  A    between atoms: _464  and  _466
REMARK  195  A    between atoms: _466  and  _467
REMARK  196  A    between atoms: _466  and  _469
REMARK  197  A    between atoms: _469  and  _470
REMARK  198  A    between atoms: _473  and  _475
REMARK  199  A    between atoms: _475  and  _476
REMARK  200  A    between atoms: _475  and  _478
REMARK  201  A    between atoms: _478  and  _479
REMARK  202  A    between atoms: _483  and  _484
REMARK  203  A    between atoms: _489  and  _491
REMARK  204  A    between atoms: _491  and  _492
REMARK  205  A    between atoms: _491  and  _494
REMARK  206  A    between atoms: _497  and  _499
REMARK  207  A    between atoms: _499  and  _500
REMARK  208  A    between atoms: _499  and  _502
REMARK  209  A    between atoms: _502  and  _503
REMARK  210  A    between atoms: _508  and  _510
REMARK  211  A    between atoms: _510  and  _511
REMARK  212  A    between atoms: _510  and  _513
REMARK  213  A    between atoms: _513  and  _514
REMARK  214  A    between atoms: _517  and  _519
REMARK  215  A    between atoms: _519  and  _520
REMARK  216  A    between atoms: _519  and  _522
REMARK  217  A    between atoms: _522  and  _523
REMARK  218  A    between atoms: _526  and  _528
REMARK  219  A    between atoms: _528  and  _529
REMARK  220  A    between atoms: _531  and  _533
REMARK  221  A    between atoms: _533  and  _534
REMARK  222  A    between atoms: _533  and  _536
REMARK  223  A    between atoms: _536  and  _537
REMARK  224  A    between atoms: _537  and  _538
REMARK  225  A    between atoms: _538  and  _539
REMARK  226  A    between atoms: _548  and  _550
REMARK  227  A    between atoms: _550  and  _551
REMARK  228  A    between atoms: _550  and  _553
REMARK  229  A    between atoms: _553  and  _554
REMARK                            x       y       z     vdW  Elec       q    Type
REMARK                         _______ _______ _______ _____ _____    ______ ____
ROOT
ATOM      1  O   HOH     1       7.283  12.712  24.600  0.00  0.00    +0.000 OA
ENDROOT
TORSDOF 0
REMARK  Name = ../refined-set-2016/2i4d/2i4d_pocket.pdb
REMARK  229 active torsions:
REMARK  status: ('A' for Active; 'I' for Inactive)
REMARK    1  A    between atoms: _1  and  _3
REMARK    2  A    between atoms: _3  and  _4
REMARK    3  A    between atoms: _3  and  _6
REMARK    4  A    between atoms: _6  and  _7
REMARK    5  A    between atoms: _7  and  _8
REMARK    6  A    between atoms: _8  and  _9
REMARK    7  A    between atoms: _18  and  _20
REMARK    8  A    between atoms: _20  and  _21
REMARK    9  A    between atoms: _20  and  _23
REMARK   10  A    between atoms: _23  and  _24
REMARK   11  A    between atoms: _27  and  _29
REMARK   12  A    between atoms: _29  and  _30
REMARK   13  A    between atoms: _29  and  _32
REMARK   14  A    between atoms: _32  and  _33
REMARK   15  A    between atoms: _36  and  _38
REMARK   16  A    between atoms: _38  and  _39
REMARK   17  A    between atoms: _38  and  _41
REMARK   18  A    between atoms: _41  and  _42
REMARK   19  A    between atoms: _45  and  _47
REMARK   20  A    between atoms: _47  and  _48
REMARK   21  A    between atoms: _47  and  _50
REMARK   22  A    between atoms: _50  and  _51
REMARK   23  A    between atoms: _54  and  _56
REMARK   24  A    between atoms: _56  and  _57
REMARK   25  A    between atoms: _59  and  _61
REMARK   26  A    between atoms: _61  and  _62
REMARK   27  A    between atoms: _65  and  _67
REMARK   28  A    between atoms: _67  and  _68
REMARK   29  A    between atoms: _67  and  _70
REMARK   30  A    between atoms: _70  and  _71
REMARK   31  A    between atoms: _74  and  _76
REMARK   32  A    between atoms: _76  and  _77
REMARK   33  A    between atoms: _76  and  _79
REMARK   34  A    between atoms: _79  and  _80
REMARK   35  A    between atoms: _83  and  _85
REMARK   36  A    between atoms: _85  and  _86
REMARK   37  A    between atoms: _85  and  _88
REMARK   38  A    between atoms: _88  and  _89
REMARK   39  A    between atoms: _92  and  _94
REMARK   40  A    between atoms: _94  and  _95
REMARK   41  A    between atoms: _94  and  _97
REMARK   42  A    between atoms: _100  and  _102
REMARK   43  A    between atoms: _102  and  _103
REMARK   44  A    between atoms: _102  and  _105
REMARK   45  A    between atoms: _105  and  _106
REMARK   46  A    between atoms: _106  and  _107
REMARK   47  A    between atoms: _107  and  _108
REMARK   48  A    between atoms: _108  and  _109
REMARK   49  A    between atoms: _113  and  _115
REMARK   50  A    between atoms: _115  and  _116
REMARK   51  A    between atoms: _115  and  _118
REMARK   52  A    between atoms: _118  and  _119
REMARK   53  A    between atoms: _119  and  _120
REMARK   54  A    between atoms: _122  and  _124
REMARK   55  A    between atoms: _124  and  _125
REMARK   56  A    between atoms: _124  and  _127
REMARK   57  A    between atoms: _127  and  _128
REMARK   58  A    between atoms: _131  and  _133
REMARK   59  A    between atoms: _133  and  _134
REMARK   60  A    between atoms: _136  and  _138
REMARK   61  A    between atoms: _138  and  _139
REMARK   62  A    between atoms: _141  and  _143
REMARK   63  A    between atoms: _143  and  _144
REMARK   64  A    between atoms: _143  and  _146
REMARK   65  A    between atoms: _146  and  _147
REMARK   66  A    between atoms: _150  and  _152
REMARK   67  A    between atoms: _152  and  _153
REMARK   68  A    between atoms: _155  and  _157
REMARK   69  A    between atoms: _157  and  _158
REMARK   70  A    between atoms: _160  and  _162
REMARK   71  A    between atoms: _162  and  _163
REMARK   72  A    between atoms: _162  and  _165
REMARK   73  A    between atoms: _165  and  _166
REMARK   74  A    between atoms: _172  and  _174
REMARK   75  A    between atoms: _174  and  _175
REMARK   76  A    between atoms: _174  and  _177
REMARK   77  A    between atoms: _177  and  _178
REMARK   78  A    between atoms: _181  and  _183
REMARK   79  A    between atoms: _183  and  _184
REMARK   80  A    between atoms: _183  and  _186
REMARK   81  A    between atoms: _189  and  _191
REMARK   82  A    between atoms: _191  and  _192
REMARK   83  A    between atoms: _191  and  _194
REMARK   84  A    between atoms: _194  and  _195
REMARK   85  A    between atoms: _198  and  _200
REMARK   86  A    between atoms: _200  and  _201
REMARK   87  A    between atoms: _200  and  _203
REMARK   88  A    between atoms: _203  and  _204
REMARK   89  A    between atoms: _208  and  _209
REMARK   90  A    between atoms: _214  and  _216
REMARK   91  A    between atoms: _216  and  _217
REMARK   92  A    between atoms: _216  and  _219
REMARK   93  A    between atoms: _222  and  _224
REMARK   94  A    between atoms: _224  and  _225
REMARK   95  A    between atoms: _224  and  _227
REMARK   96  A    between atoms: _227  and  _228
REMARK   97  A    between atoms: _233  and  _235
REMARK   98  A    between atoms: _235  and  _236
REMARK   99  A    between atoms: _235  and  _238
REMARK  100  A    between atoms: _238  and  _239
REMARK  101  A    between atoms: _242  and  _244
REMARK  102  A    between atoms: _244  and  _245
REMARK  103  A    between atoms: _244  and  _247
REMARK  104  A    between atoms: _247  and  _248
REMARK  105  A    between atoms: _251  and  _253
REMARK  106  A    between atoms: _253  and  _254
REMARK  107  A    between atoms: _256  and  _258
REMARK  108  A    between atoms: _258  and  _259
REMARK  109  A    between atoms: _258  and  _261
REMARK  110  A    between atoms: _261  and  _262
REMARK  111  A    between atoms: _262  and  _263
REMARK  112  A    between atoms: _263  and  _264
REMARK  113  A    between atoms: _273  and  _275
REMARK  114  A    between atoms: _275  and  _276
REMARK  115  A    between atoms: _275  and  _278
REMARK  116  A    between atoms: _278  and  _279
REMARK  117  A    between atoms: _284  and  _286
REMARK  118  A    between atoms: _286  and  _287
REMARK  119  A    between atoms: _286  and  _289
REMARK  120  A    between atoms: _289  and  _290
REMARK  121  A    between atoms: _290  and  _291
REMARK  122  A    between atoms: _291  and  _292
REMARK  123  A    between atoms: _301  and  _303
REMARK  124  A    between atoms: _303  and  _304
REMARK  125  A    between atoms: _303  and  _306
REMARK  126  A    between atoms: _306  and  _307
REMARK  127  A    between atoms: _310  and  _312
REMARK  128  A    between atoms: _312  and  _313
REMARK  129  A    between atoms: _312  and  _315
REMARK  130  A    between atoms: _315  and  _316
REMARK  131  A    between atoms: _319  and  _321
REMARK  132  A    between atoms: _321  and  _322
REMARK  133  A    between atoms: _321  and  _324
REMARK  134  A    between atoms: _324  and  _325
REMARK  135  A    between atoms: _328  and  _330
REMARK  136  A    between atoms: _330  and  _331
REMARK  137  A    between atoms: _330  and  _333
REMARK  138  A    between atoms: _333  and  _334
REMARK  139  A    between atoms: _337  and  _339
REMARK  140  A    between atoms: _339  and  _340
REMARK  141  A    between atoms: _342  and  _344
REMARK  142  A    between atoms: _344  and  _345
REMARK  143  A    between atoms: _348  and  _350
REMARK  144  A    between atoms: _350  and  _351
REMARK  145  A    between atoms: _350  and  _353
REMARK  146  A    between atoms: _353  and  _354
REMARK  147  A    between atoms: _357  and  _359
REMARK  148  A    between atoms: _359  and  _360
REMARK  149  A    between atoms: _359  and  _362
REMARK  150  A    between atoms: _362  and  _363
REMARK  151  A    between atoms: _366  and  _368
REMARK  152  A    between atoms: _368  and  _369
REMARK  153  A    between atoms: _368  and  _371
REMARK  154  A    between atoms: _371  and  _372
REMARK  155  A    between atoms: _375  and  _377
REMARK  156  A    between atoms: _377  and  _378
REMARK  157  A    between atoms: _377  and  _380
REMARK  158  A    between atoms: _383  and  _385
REMARK  159  A    between atoms: _385  and  _386
REMARK  160  A    between atoms: _385  and  _388
REMARK  161  A    between atoms: _388  and  _389
REMARK  162  A    between atoms: _389  and  _390
REMARK  163  A    between atoms: _390  and  _391
REMARK  164  A    between atoms: _391  and  _392
REMARK  165  A    between atoms: _396  and  _398
REMARK  166  A    between atoms: _398  and  _399
REMARK  167  A    between atoms: _398  and  _401
REMARK  168  A    between atoms: _401  and  _402
REMARK  169  A    between atoms: _402  and  _403
REMARK  170  A    between atoms: _405  and  _407
REMARK  171  A    between atoms: _407  and  _408
REMARK  172  A    between atoms: _407  and  _410
REMARK  173  A    between atoms: _410  and  _411
REMARK  174  A    between atoms: _414  and  _416
REMARK  175  A    between atoms: _416  and  _417
REMARK  176  A    between atoms: _419  and  _421
REMARK  177  A    between atoms: _421  and  _422
REMARK  178  A    between atoms: _424  and  _426
REMARK  179  A    between atoms: _426  and  _427
REMARK  180  A    between atoms: _426  and  _429
REMARK  181  A    between atoms: _429  and  _430
REMARK  182  A    between atoms: _433  and  _435
REMARK  183  A    between atoms: _435  and  _436
REMARK  184  A    between atoms: _438  and  _440
REMARK  185  A    between atoms: _440  and  _441
REMARK  186  A    between atoms: _443  and  _445
REMARK  187  A    between atoms: _445  and  _446
REMARK  188  A    between atoms: _445  and  _448
REMARK  189  A    between atoms: _448  and  _449
REMARK  190  A    between atoms: _455  and  _457
REMARK  191  A    between atoms: _457  and  _458
REMARK  192  A    between atoms: _457  and  _460
REMARK  193  A    between atoms: _460  and  _461
REMARK  194  A    between atoms: _464  and  _466
REMARK  195  A    between atoms: _466  and  _467
REMARK  196  A    between atoms: _466  and  _469
REMARK  197  A    between atoms: _469  and  _470
REMARK  198  A    between atoms: _473  and  _475
REMARK  199  A    between atoms: _475  and  _476
REMARK  200  A    between atoms: _475  and  _478
REMARK  201  A    between atoms: _478  and  _479
REMARK  202  A    between atoms: _483  and  _484
REMARK  203  A    between atoms: _489  and  _491
REMARK  204  A    between atoms: _491  and  _492
REMARK  205  A    between atoms: _491  and  _494
REMARK  206  A    between atoms: _497  and  _499
REMARK  207  A    between atoms: _499  and  _500
REMARK  208  A    between atoms: _499  and  _502
REMARK  209  A    between atoms: _502  and  _503
REMARK  210  A    between atoms: _508  and  _510
REMARK  211  A    between atoms: _510  and  _511
REMARK  212  A    between atoms: _510  and  _513
REMARK  213  A    between atoms: _513  and  _514
REMARK  214  A    between atoms: _517  and  _519
REMARK  215  A    between atoms: _519  and  _520
REMARK  216  A    between atoms: _519  and  _522
REMARK  217  A    between atoms: _522  and  _523
REMARK  218  A    between atoms: _526  and  _528
REMARK  219  A    between atoms: _528  and  _529
REMARK  220  A    between atoms: _531  and  _533
REMARK  221  A    between atoms: _533  and  _534
REMARK  222  A    between atoms: _533  and  _536
REMARK  223  A    between atoms: _536  and  _537
REMARK  224  A    between atoms: _537  and  _538
REMARK  225  A    between atoms: _538  and  _539
REMARK  226  A    between atoms: _548  and  _550
REMARK  227  A    between atoms: _550  and  _551
REMARK  228  A    between atoms: _550  and  _553
REMARK  229  A    between atoms: _553  and  _554
REMARK                            x       y       z     vdW  Elec       q    Type
REMARK                         _______ _______ _______ _____ _____    ______ ____
ROOT
ATOM      1  O   HOH     1       4.873  16.314  21.396  0.00  0.00    +0.000 OA
ENDROOT
TORSDOF 0
REMARK  Name = ../refined-set-2016/2i4d/2i4d_pocket.pdb
REMARK  229 active torsions:
REMARK  status: ('A' for Active; 'I' for Inactive)
REMARK    1  A    between atoms: _1  and  _3
REMARK    2  A    between atoms: _3  and  _4
REMARK    3  A    between atoms: _3  and  _6
REMARK    4  A    between atoms: _6  and  _7
REMARK    5  A    between atoms: _7  and  _8
REMARK    6  A    between atoms: _8  and  _9
REMARK    7  A    between atoms: _18  and  _20
REMARK    8  A    between atoms: _20  and  _21
REMARK    9  A    between atoms: _20  and  _23
REMARK   10  A    between atoms: _23  and  _24
REMARK   11  A    between atoms: _27  and  _29
REMARK   12  A    between atoms: _29  and  _30
REMARK   13  A    between atoms: _29  and  _32
REMARK   14  A    between atoms: _32  and  _33
REMARK   15  A    between atoms: _36  and  _38
REMARK   16  A    between atoms: _38  and  _39
REMARK   17  A    between atoms: _38  and  _41
REMARK   18  A    between atoms: _41  and  _42
REMARK   19  A    between atoms: _45  and  _47
REMARK   20  A    between atoms: _47  and  _48
REMARK   21  A    between atoms: _47  and  _50
REMARK   22  A    between atoms: _50  and  _51
REMARK   23  A    between atoms: _54  and  _56
REMARK   24  A    between atoms: _56  and  _57
REMARK   25  A    between atoms: _59  and  _61
REMARK   26  A    between atoms: _61  and  _62
REMARK   27  A    between atoms: _65  and  _67
REMARK   28  A    between atoms: _67  and  _68
REMARK   29  A    between atoms: _67  and  _70
REMARK   30  A    between atoms: _70  and  _71
REMARK   31  A    between atoms: _74  and  _76
REMARK   32  A    between atoms: _76  and  _77
REMARK   33  A    between atoms: _76  and  _79
REMARK   34  A    between atoms: _79  and  _80
REMARK   35  A    between atoms: _83  and  _85
REMARK   36  A    between atoms: _85  and  _86
REMARK   37  A    between atoms: _85  and  _88
REMARK   38  A    between atoms: _88  and  _89
REMARK   39  A    between atoms: _92  and  _94
REMARK   40  A    between atoms: _94  and  _95
REMARK   41  A    between atoms: _94  and  _97
REMARK   42  A    between atoms: _100  and  _102
REMARK   43  A    between atoms: _102  and  _103
REMARK   44  A    between atoms: _102  and  _105
REMARK   45  A    between atoms: _105  and  _106
REMARK   46  A    between atoms: _106  and  _107
REMARK   47  A    between atoms: _107  and  _108
REMARK   48  A    between atoms: _108  and  _109
REMARK   49  A    between atoms: _113  and  _115
REMARK   50  A    between atoms: _115  and  _116
REMARK   51  A    between atoms: _115  and  _118
REMARK   52  A    between atoms: _118  and  _119
REMARK   53  A    between atoms: _119  and  _120
REMARK   54  A    between atoms: _122  and  _124
REMARK   55  A    between atoms: _124  and  _125
REMARK   56  A    between atoms: _124  and  _127
REMARK   57  A    between atoms: _127  and  _128
REMARK   58  A    between atoms: _131  and  _133
REMARK   59  A    between atoms: _133  and  _134
REMARK   60  A    between atoms: _136  and  _138
REMARK   61  A    between atoms: _138  and  _139
REMARK   62  A    between atoms: _141  and  _143
REMARK   63  A    between atoms: _143  and  _144
REMARK   64  A    between atoms: _143  and  _146
REMARK   65  A    between atoms: _146  and  _147
REMARK   66  A    between atoms: _150  and  _152
REMARK   67  A    between atoms: _152  and  _153
REMARK   68  A    between atoms: _155  and  _157
REMARK   69  A    between atoms: _157  and  _158
REMARK   70  A    between atoms: _160  and  _162
REMARK   71  A    between atoms: _162  and  _163
REMARK   72  A    between atoms: _162  and  _165
REMARK   73  A    between atoms: _165  and  _166
REMARK   74  A    between atoms: _172  and  _174
REMARK   75  A    between atoms: _174  and  _175
REMARK   76  A    between atoms: _174  and  _177
REMARK   77  A    between atoms: _177  and  _178
REMARK   78  A    between atoms: _181  and  _183
REMARK   79  A    between atoms: _183  and  _184
REMARK   80  A    between atoms: _183  and  _186
REMARK   81  A    between atoms: _189  and  _191
REMARK   82  A    between atoms: _191  and  _192
REMARK   83  A    between atoms: _191  and  _194
REMARK   84  A    between atoms: _194  and  _195
REMARK   85  A    between atoms: _198  and  _200
REMARK   86  A    between atoms: _200  and  _201
REMARK   87  A    between atoms: _200  and  _203
REMARK   88  A    between atoms: _203  and  _204
REMARK   89  A    between atoms: _208  and  _209
REMARK   90  A    between atoms: _214  and  _216
REMARK   91  A    between atoms: _216  and  _217
REMARK   92  A    between atoms: _216  and  _219
REMARK   93  A    between atoms: _222  and  _224
REMARK   94  A    between atoms: _224  and  _225
REMARK   95  A    between atoms: _224  and  _227
REMARK   96  A    between atoms: _227  and  _228
REMARK   97  A    between atoms: _233  and  _235
REMARK   98  A    between atoms: _235  and  _236
REMARK   99  A    between atoms: _235  and  _238
REMARK  100  A    between atoms: _238  and  _239
REMARK  101  A    between atoms: _242  and  _244
REMARK  102  A    between atoms: _244  and  _245
REMARK  103  A    between atoms: _244  and  _247
REMARK  104  A    between atoms: _247  and  _248
REMARK  105  A    between atoms: _251  and  _253
REMARK  106  A    between atoms: _253  and  _254
REMARK  107  A    between atoms: _256  and  _258
REMARK  108  A    between atoms: _258  and  _259
REMARK  109  A    between atoms: _258  and  _261
REMARK  110  A    between atoms: _261  and  _262
REMARK  111  A    between atoms: _262  and  _263
REMARK  112  A    between atoms: _263  and  _264
REMARK  113  A    between atoms: _273  and  _275
REMARK  114  A    between atoms: _275  and  _276
REMARK  115  A    between atoms: _275  and  _278
REMARK  116  A    between atoms: _278  and  _279
REMARK  117  A    between atoms: _284  and  _286
REMARK  118  A    between atoms: _286  and  _287
REMARK  119  A    between atoms: _286  and  _289
REMARK  120  A    between atoms: _289  and  _290
REMARK  121  A    between atoms: _290  and  _291
REMARK  122  A    between atoms: _291  and  _292
REMARK  123  A    between atoms: _301  and  _303
REMARK  124  A    between atoms: _303  and  _304
REMARK  125  A    between atoms: _303  and  _306
REMARK  126  A    between atoms: _306  and  _307
REMARK  127  A    between atoms: _310  and  _312
REMARK  128  A    between atoms: _312  and  _313
REMARK  129  A    between atoms: _312  and  _315
REMARK  130  A    between atoms: _315  and  _316
REMARK  131  A    between atoms: _319  and  _321
REMARK  132  A    between atoms: _321  and  _322
REMARK  133  A    between atoms: _321  and  _324
REMARK  134  A    between atoms: _324  and  _325
REMARK  135  A    between atoms: _328  and  _330
REMARK  136  A    between atoms: _330  and  _331
REMARK  137  A    between atoms: _330  and  _333
REMARK  138  A    between atoms: _333  and  _334
REMARK  139  A    between atoms: _337  and  _339
REMARK  140  A    between atoms: _339  and  _340
REMARK  141  A    between atoms: _342  and  _344
REMARK  142  A    between atoms: _344  and  _345
REMARK  143  A    between atoms: _348  and  _350
REMARK  144  A    between atoms: _350  and  _351
REMARK  145  A    between atoms: _350  and  _353
REMARK  146  A    between atoms: _353  and  _354
REMARK  147  A    between atoms: _357  and  _359
REMARK  148  A    between atoms: _359  and  _360
REMARK  149  A    between atoms: _359  and  _362
REMARK  150  A    between atoms: _362  and  _363
REMARK  151  A    between atoms: _366  and  _368
REMARK  152  A    between atoms: _368  and  _369
REMARK  153  A    between atoms: _368  and  _371
REMARK  154  A    between atoms: _371  and  _372
REMARK  155  A    between atoms: _375  and  _377
REMARK  156  A    between atoms: _377  and  _378
REMARK  157  A    between atoms: _377  and  _380
REMARK  158  A    between atoms: _383  and  _385
REMARK  159  A    between atoms: _385  and  _386
REMARK  160  A    between atoms: _385  and  _388
REMARK  161  A    between atoms: _388  and  _389
REMARK  162  A    between atoms: _389  and  _390
REMARK  163  A    between atoms: _390  and  _391
REMARK  164  A    between atoms: _391  and  _392
REMARK  165  A    between atoms: _396  and  _398
REMARK  166  A    between atoms: _398  and  _399
REMARK  167  A    between atoms: _398  and  _401
REMARK  168  A    between atoms: _401  and  _402
REMARK  169  A    between atoms: _402  and  _403
REMARK  170  A    between atoms: _405  and  _407
REMARK  171  A    between atoms: _407  and  _408
REMARK  172  A    between atoms: _407  and  _410
REMARK  173  A    between atoms: _410  and  _411
REMARK  174  A    between atoms: _414  and  _416
REMARK  175  A    between atoms: _416  and  _417
REMARK  176  A    between atoms: _419  and  _421
REMARK  177  A    between atoms: _421  and  _422
REMARK  178  A    between atoms: _424  and  _426
REMARK  179  A    between atoms: _426  and  _427
REMARK  180  A    between atoms: _426  and  _429
REMARK  181  A    between atoms: _429  and  _430
REMARK  182  A    between atoms: _433  and  _435
REMARK  183  A    between atoms: _435  and  _436
REMARK  184  A    between atoms: _438  and  _440
REMARK  185  A    between atoms: _440  and  _441
REMARK  186  A    between atoms: _443  and  _445
REMARK  187  A    between atoms: _445  and  _446
REMARK  188  A    between atoms: _445  and  _448
REMARK  189  A    between atoms: _448  and  _449
REMARK  190  A    between atoms: _455  and  _457
REMARK  191  A    between atoms: _457  and  _458
REMARK  192  A    between atoms: _457  and  _460
REMARK  193  A    between atoms: _460  and  _461
REMARK  194  A    between atoms: _464  and  _466
REMARK  195  A    between atoms: _466  and  _467
REMARK  196  A    between atoms: _466  and  _469
REMARK  197  A    between atoms: _469  and  _470
REMARK  198  A    between atoms: _473  and  _475
REMARK  199  A    between atoms: _475  and  _476
REMARK  200  A    between atoms: _475  and  _478
REMARK  201  A    between atoms: _478  and  _479
REMARK  202  A    between atoms: _483  and  _484
REMARK  203  A    between atoms: _489  and  _491
REMARK  204  A    between atoms: _491  and  _492
REMARK  205  A    between atoms: _491  and  _494
REMARK  206  A    between atoms: _497  and  _499
REMARK  207  A    between atoms: _499  and  _500
REMARK  208  A    between atoms: _499  and  _502
REMARK  209  A    between atoms: _502  and  _503
REMARK  210  A    between atoms: _508  and  _510
REMARK  211  A    between atoms: _510  and  _511
REMARK  212  A    between atoms: _510  and  _513
REMARK  213  A    between atoms: _513  and  _514
REMARK  214  A    between atoms: _517  and  _519
REMARK  215  A    between atoms: _519  and  _520
REMARK  216  A    between atoms: _519  and  _522
REMARK  217  A    between atoms: _522  and  _523
REMARK  218  A    between atoms: _526  and  _528
REMARK  219  A    between atoms: _528  and  _529
REMARK  220  A    between atoms: _531  and  _533
REMARK  221  A    between atoms: _533  and  _534
REMARK  222  A    between atoms: _533  and  _536
REMARK  223  A    between atoms: _536  and  _537
REMARK  224  A    between atoms: _537  and  _538
REMARK  225  A    between atoms: _538  and  _539
REMARK  226  A    between atoms: _548  and  _550
REMARK  227  A    between atoms: _550  and  _551
REMARK  228  A    between atoms: _550  and  _553
REMARK  229  A    between atoms: _553  and  _554
REMARK                            x       y       z     vdW  Elec       q    Type
REMARK                         _______ _______ _______ _____ _____    ______ ____
ROOT
ATOM      1  O   HOH     1      18.639  17.072   8.977  0.00  0.00    +0.000 OA
ENDROOT
TORSDOF 0
REMARK  Name = ../refined-set-2016/2i4d/2i4d_pocket.pdb
REMARK  229 active torsions:
REMARK  status: ('A' for Active; 'I' for Inactive)
REMARK    1  A    between atoms: _1  and  _3
REMARK    2  A    between atoms: _3  and  _4
REMARK    3  A    between atoms: _3  and  _6
REMARK    4  A    between atoms: _6  and  _7
REMARK    5  A    between atoms: _7  and  _8
REMARK    6  A    between atoms: _8  and  _9
REMARK    7  A    between atoms: _18  and  _20
REMARK    8  A    between atoms: _20  and  _21
REMARK    9  A    between atoms: _20  and  _23
REMARK   10  A    between atoms: _23  and  _24
REMARK   11  A    between atoms: _27  and  _29
REMARK   12  A    between atoms: _29  and  _30
REMARK   13  A    between atoms: _29  and  _32
REMARK   14  A    between atoms: _32  and  _33
REMARK   15  A    between atoms: _36  and  _38
REMARK   16  A    between atoms: _38  and  _39
REMARK   17  A    between atoms: _38  and  _41
REMARK   18  A    between atoms: _41  and  _42
REMARK   19  A    between atoms: _45  and  _47
REMARK   20  A    between atoms: _47  and  _48
REMARK   21  A    between atoms: _47  and  _50
REMARK   22  A    between atoms: _50  and  _51
REMARK   23  A    between atoms: _54  and  _56
REMARK   24  A    between atoms: _56  and  _57
REMARK   25  A    between atoms: _59  and  _61
REMARK   26  A    between atoms: _61  and  _62
REMARK   27  A    between atoms: _65  and  _67
REMARK   28  A    between atoms: _67  and  _68
REMARK   29  A    between atoms: _67  and  _70
REMARK   30  A    between atoms: _70  and  _71
REMARK   31  A    between atoms: _74  and  _76
REMARK   32  A    between atoms: _76  and  _77
REMARK   33  A    between atoms: _76  and  _79
REMARK   34  A    between atoms: _79  and  _80
REMARK   35  A    between atoms: _83  and  _85
REMARK   36  A    between atoms: _85  and  _86
REMARK   37  A    between atoms: _85  and  _88
REMARK   38  A    between atoms: _88  and  _89
REMARK   39  A    between atoms: _92  and  _94
REMARK   40  A    between atoms: _94  and  _95
REMARK   41  A    between atoms: _94  and  _97
REMARK   42  A    between atoms: _100  and  _102
REMARK   43  A    between atoms: _102  and  _103
REMARK   44  A    between atoms: _102  and  _105
REMARK   45  A    between atoms: _105  and  _106
REMARK   46  A    between atoms: _106  and  _107
REMARK   47  A    between atoms: _107  and  _108
REMARK   48  A    between atoms: _108  and  _109
REMARK   49  A    between atoms: _113  and  _115
REMARK   50  A    between atoms: _115  and  _116
REMARK   51  A    between atoms: _115  and  _118
REMARK   52  A    between atoms: _118  and  _119
REMARK   53  A    between atoms: _119  and  _120
REMARK   54  A    between atoms: _122  and  _124
REMARK   55  A    between atoms: _124  and  _125
REMARK   56  A    between atoms: _124  and  _127
REMARK   57  A    between atoms: _127  and  _128
REMARK   58  A    between atoms: _131  and  _133
REMARK   59  A    between atoms: _133  and  _134
REMARK   60  A    between atoms: _136  and  _138
REMARK   61  A    between atoms: _138  and  _139
REMARK   62  A    between atoms: _141  and  _143
REMARK   63  A    between atoms: _143  and  _144
REMARK   64  A    between atoms: _143  and  _146
REMARK   65  A    between atoms: _146  and  _147
REMARK   66  A    between atoms: _150  and  _152
REMARK   67  A    between atoms: _152  and  _153
REMARK   68  A    between atoms: _155  and  _157
REMARK   69  A    between atoms: _157  and  _158
REMARK   70  A    between atoms: _160  and  _162
REMARK   71  A    between atoms: _162  and  _163
REMARK   72  A    between atoms: _162  and  _165
REMARK   73  A    between atoms: _165  and  _166
REMARK   74  A    between atoms: _172  and  _174
REMARK   75  A    between atoms: _174  and  _175
REMARK   76  A    between atoms: _174  and  _177
REMARK   77  A    between atoms: _177  and  _178
REMARK   78  A    between atoms: _181  and  _183
REMARK   79  A    between atoms: _183  and  _184
REMARK   80  A    between atoms: _183  and  _186
REMARK   81  A    between atoms: _189  and  _191
REMARK   82  A    between atoms: _191  and  _192
REMARK   83  A    between atoms: _191  and  _194
REMARK   84  A    between atoms: _194  and  _195
REMARK   85  A    between atoms: _198  and  _200
REMARK   86  A    between atoms: _200  and  _201
REMARK   87  A    between atoms: _200  and  _203
REMARK   88  A    between atoms: _203  and  _204
REMARK   89  A    between atoms: _208  and  _209
REMARK   90  A    between atoms: _214  and  _216
REMARK   91  A    between atoms: _216  and  _217
REMARK   92  A    between atoms: _216  and  _219
REMARK   93  A    between atoms: _222  and  _224
REMARK   94  A    between atoms: _224  and  _225
REMARK   95  A    between atoms: _224  and  _227
REMARK   96  A    between atoms: _227  and  _228
REMARK   97  A    between atoms: _233  and  _235
REMARK   98  A    between atoms: _235  and  _236
REMARK   99  A    between atoms: _235  and  _238
REMARK  100  A    between atoms: _238  and  _239
REMARK  101  A    between atoms: _242  and  _244
REMARK  102  A    between atoms: _244  and  _245
REMARK  103  A    between atoms: _244  and  _247
REMARK  104  A    between atoms: _247  and  _248
REMARK  105  A    between atoms: _251  and  _253
REMARK  106  A    between atoms: _253  and  _254
REMARK  107  A    between atoms: _256  and  _258
REMARK  108  A    between atoms: _258  and  _259
REMARK  109  A    between atoms: _258  and  _261
REMARK  110  A    between atoms: _261  and  _262
REMARK  111  A    between atoms: _262  and  _263
REMARK  112  A    between atoms: _263  and  _264
REMARK  113  A    between atoms: _273  and  _275
REMARK  114  A    between atoms: _275  and  _276
REMARK  115  A    between atoms: _275  and  _278
REMARK  116  A    between atoms: _278  and  _279
REMARK  117  A    between atoms: _284  and  _286
REMARK  118  A    between atoms: _286  and  _287
REMARK  119  A    between atoms: _286  and  _289
REMARK  120  A    between atoms: _289  and  _290
REMARK  121  A    between atoms: _290  and  _291
REMARK  122  A    between atoms: _291  and  _292
REMARK  123  A    between atoms: _301  and  _303
REMARK  124  A    between atoms: _303  and  _304
REMARK  125  A    between atoms: _303  and  _306
REMARK  126  A    between atoms: _306  and  _307
REMARK  127  A    between atoms: _310  and  _312
REMARK  128  A    between atoms: _312  and  _313
REMARK  129  A    between atoms: _312  and  _315
REMARK  130  A    between atoms: _315  and  _316
REMARK  131  A    between atoms: _319  and  _321
REMARK  132  A    between atoms: _321  and  _322
REMARK  133  A    between atoms: _321  and  _324
REMARK  134  A    between atoms: _324  and  _325
REMARK  135  A    between atoms: _328  and  _330
REMARK  136  A    between atoms: _330  and  _331
REMARK  137  A    between atoms: _330  and  _333
REMARK  138  A    between atoms: _333  and  _334
REMARK  139  A    between atoms: _337  and  _339
REMARK  140  A    between atoms: _339  and  _340
REMARK  141  A    between atoms: _342  and  _344
REMARK  142  A    between atoms: _344  and  _345
REMARK  143  A    between atoms: _348  and  _350
REMARK  144  A    between atoms: _350  and  _351
REMARK  145  A    between atoms: _350  and  _353
REMARK  146  A    between atoms: _353  and  _354
REMARK  147  A    between atoms: _357  and  _359
REMARK  148  A    between atoms: _359  and  _360
REMARK  149  A    between atoms: _359  and  _362
REMARK  150  A    between atoms: _362  and  _363
REMARK  151  A    between atoms: _366  and  _368
REMARK  152  A    between atoms: _368  and  _369
REMARK  153  A    between atoms: _368  and  _371
REMARK  154  A    between atoms: _371  and  _372
REMARK  155  A    between atoms: _375  and  _377
REMARK  156  A    between atoms: _377  and  _378
REMARK  157  A    between atoms: _377  and  _380
REMARK  158  A    between atoms: _383  and  _385
REMARK  159  A    between atoms: _385  and  _386
REMARK  160  A    between atoms: _385  and  _388
REMARK  161  A    between atoms: _388  and  _389
REMARK  162  A    between atoms: _389  and  _390
REMARK  163  A    between atoms: _390  and  _391
REMARK  164  A    between atoms: _391  and  _392
REMARK  165  A    between atoms: _396  and  _398
REMARK  166  A    between atoms: _398  and  _399
REMARK  167  A    between atoms: _398  and  _401
REMARK  168  A    between atoms: _401  and  _402
REMARK  169  A    between atoms: _402  and  _403
REMARK  170  A    between atoms: _405  and  _407
REMARK  171  A    between atoms: _407  and  _408
REMARK  172  A    between atoms: _407  and  _410
REMARK  173  A    between atoms: _410  and  _411
REMARK  174  A    between atoms: _414  and  _416
REMARK  175  A    between atoms: _416  and  _417
REMARK  176  A    between atoms: _419  and  _421
REMARK  177  A    between atoms: _421  and  _422
REMARK  178  A    between atoms: _424  and  _426
REMARK  179  A    between atoms: _426  and  _427
REMARK  180  A    between atoms: _426  and  _429
REMARK  181  A    between atoms: _429  and  _430
REMARK  182  A    between atoms: _433  and  _435
REMARK  183  A    between atoms: _435  and  _436
REMARK  184  A    between atoms: _438  and  _440
REMARK  185  A    between atoms: _440  and  _441
REMARK  186  A    between atoms: _443  and  _445
REMARK  187  A    between atoms: _445  and  _446
REMARK  188  A    between atoms: _445  and  _448
REMARK  189  A    between atoms: _448  and  _449
REMARK  190  A    between atoms: _455  and  _457
REMARK  191  A    between atoms: _457  and  _458
REMARK  192  A    between atoms: _457  and  _460
REMARK  193  A    between atoms: _460  and  _461
REMARK  194  A    between atoms: _464  and  _466
REMARK  195  A    between atoms: _466  and  _467
REMARK  196  A    between atoms: _466  and  _469
REMARK  197  A    between atoms: _469  and  _470
REMARK  198  A    between atoms: _473  and  _475
REMARK  199  A    between atoms: _475  and  _476
REMARK  200  A    between atoms: _475  and  _478
REMARK  201  A    between atoms: _478  and  _479
REMARK  202  A    between atoms: _483  and  _484
REMARK  203  A    between atoms: _489  and  _491
REMARK  204  A    between atoms: _491  and  _492
REMARK  205  A    between atoms: _491  and  _494
REMARK  206  A    between atoms: _497  and  _499
REMARK  207  A    between atoms: _499  and  _500
REMARK  208  A    between atoms: _499  and  _502
REMARK  209  A    between atoms: _502  and  _503
REMARK  210  A    between atoms: _508  and  _510
REMARK  211  A    between atoms: _510  and  _511
REMARK  212  A    between atoms: _510  and  _513
REMARK  213  A    between atoms: _513  and  _514
REMARK  214  A    between atoms: _517  and  _519
REMARK  215  A    between atoms: _519  and  _520
REMARK  216  A    between atoms: _519  and  _522
REMARK  217  A    between atoms: _522  and  _523
REMARK  218  A    between atoms: _526  and  _528
REMARK  219  A    between atoms: _528  and  _529
REMARK  220  A    between atoms: _531  and  _533
REMARK  221  A    between atoms: _533  and  _534
REMARK  222  A    between atoms: _533  and  _536
REMARK  223  A    between atoms: _536  and  _537
REMARK  224  A    between atoms: _537  and  _538
REMARK  225  A    between atoms: _538  and  _539
REMARK  226  A    between atoms: _548  and  _550
REMARK  227  A    between atoms: _550  and  _551
REMARK  228  A    between atoms: _550  and  _553
REMARK  229  A    between atoms: _553  and  _554
REMARK                            x       y       z     vdW  Elec       q    Type
REMARK                         _______ _______ _______ _____ _____    ______ ____
ROOT
ATOM      1  O   HOH     1       8.238  16.523  14.572  0.00  0.00    +0.000 OA
ENDROOT
TORSDOF 0
REMARK  Name = ../refined-set-2016/2i4d/2i4d_pocket.pdb
REMARK  229 active torsions:
REMARK  status: ('A' for Active; 'I' for Inactive)
REMARK    1  A    between atoms: _1  and  _3
REMARK    2  A    between atoms: _3  and  _4
REMARK    3  A    between atoms: _3  and  _6
REMARK    4  A    between atoms: _6  and  _7
REMARK    5  A    between atoms: _7  and  _8
REMARK    6  A    between atoms: _8  and  _9
REMARK    7  A    between atoms: _18  and  _20
REMARK    8  A    between atoms: _20  and  _21
REMARK    9  A    between atoms: _20  and  _23
REMARK   10  A    between atoms: _23  and  _24
REMARK   11  A    between atoms: _27  and  _29
REMARK   12  A    between atoms: _29  and  _30
REMARK   13  A    between atoms: _29  and  _32
REMARK   14  A    between atoms: _32  and  _33
REMARK   15  A    between atoms: _36  and  _38
REMARK   16  A    between atoms: _38  and  _39
REMARK   17  A    between atoms: _38  and  _41
REMARK   18  A    between atoms: _41  and  _42
REMARK   19  A    between atoms: _45  and  _47
REMARK   20  A    between atoms: _47  and  _48
REMARK   21  A    between atoms: _47  and  _50
REMARK   22  A    between atoms: _50  and  _51
REMARK   23  A    between atoms: _54  and  _56
REMARK   24  A    between atoms: _56  and  _57
REMARK   25  A    between atoms: _59  and  _61
REMARK   26  A    between atoms: _61  and  _62
REMARK   27  A    between atoms: _65  and  _67
REMARK   28  A    between atoms: _67  and  _68
REMARK   29  A    between atoms: _67  and  _70
REMARK   30  A    between atoms: _70  and  _71
REMARK   31  A    between atoms: _74  and  _76
REMARK   32  A    between atoms: _76  and  _77
REMARK   33  A    between atoms: _76  and  _79
REMARK   34  A    between atoms: _79  and  _80
REMARK   35  A    between atoms: _83  and  _85
REMARK   36  A    between atoms: _85  and  _86
REMARK   37  A    between atoms: _85  and  _88
REMARK   38  A    between atoms: _88  and  _89
REMARK   39  A    between atoms: _92  and  _94
REMARK   40  A    between atoms: _94  and  _95
REMARK   41  A    between atoms: _94  and  _97
REMARK   42  A    between atoms: _100  and  _102
REMARK   43  A    between atoms: _102  and  _103
REMARK   44  A    between atoms: _102  and  _105
REMARK   45  A    between atoms: _105  and  _106
REMARK   46  A    between atoms: _106  and  _107
REMARK   47  A    between atoms: _107  and  _108
REMARK   48  A    between atoms: _108  and  _109
REMARK   49  A    between atoms: _113  and  _115
REMARK   50  A    between atoms: _115  and  _116
REMARK   51  A    between atoms: _115  and  _118
REMARK   52  A    between atoms: _118  and  _119
REMARK   53  A    between atoms: _119  and  _120
REMARK   54  A    between atoms: _122  and  _124
REMARK   55  A    between atoms: _124  and  _125
REMARK   56  A    between atoms: _124  and  _127
REMARK   57  A    between atoms: _127  and  _128
REMARK   58  A    between atoms: _131  and  _133
REMARK   59  A    between atoms: _133  and  _134
REMARK   60  A    between atoms: _136  and  _138
REMARK   61  A    between atoms: _138  and  _139
REMARK   62  A    between atoms: _141  and  _143
REMARK   63  A    between atoms: _143  and  _144
REMARK   64  A    between atoms: _143  and  _146
REMARK   65  A    between atoms: _146  and  _147
REMARK   66  A    between atoms: _150  and  _152
REMARK   67  A    between atoms: _152  and  _153
REMARK   68  A    between atoms: _155  and  _157
REMARK   69  A    between atoms: _157  and  _158
REMARK   70  A    between atoms: _160  and  _162
REMARK   71  A    between atoms: _162  and  _163
REMARK   72  A    between atoms: _162  and  _165
REMARK   73  A    between atoms: _165  and  _166
REMARK   74  A    between atoms: _172  and  _174
REMARK   75  A    between atoms: _174  and  _175
REMARK   76  A    between atoms: _174  and  _177
REMARK   77  A    between atoms: _177  and  _178
REMARK   78  A    between atoms: _181  and  _183
REMARK   79  A    between atoms: _183  and  _184
REMARK   80  A    between atoms: _183  and  _186
REMARK   81  A    between atoms: _189  and  _191
REMARK   82  A    between atoms: _191  and  _192
REMARK   83  A    between atoms: _191  and  _194
REMARK   84  A    between atoms: _194  and  _195
REMARK   85  A    between atoms: _198  and  _200
REMARK   86  A    between atoms: _200  and  _201
REMARK   87  A    between atoms: _200  and  _203
REMARK   88  A    between atoms: _203  and  _204
REMARK   89  A    between atoms: _208  and  _209
REMARK   90  A    between atoms: _214  and  _216
REMARK   91  A    between atoms: _216  and  _217
REMARK   92  A    between atoms: _216  and  _219
REMARK   93  A    between atoms: _222  and  _224
REMARK   94  A    between atoms: _224  and  _225
REMARK   95  A    between atoms: _224  and  _227
REMARK   96  A    between atoms: _227  and  _228
REMARK   97  A    between atoms: _233  and  _235
REMARK   98  A    between atoms: _235  and  _236
REMARK   99  A    between atoms: _235  and  _238
REMARK  100  A    between atoms: _238  and  _239
REMARK  101  A    between atoms: _242  and  _244
REMARK  102  A    between atoms: _244  and  _245
REMARK  103  A    between atoms: _244  and  _247
REMARK  104  A    between atoms: _247  and  _248
REMARK  105  A    between atoms: _251  and  _253
REMARK  106  A    between atoms: _253  and  _254
REMARK  107  A    between atoms: _256  and  _258
REMARK  108  A    between atoms: _258  and  _259
REMARK  109  A    between atoms: _258  and  _261
REMARK  110  A    between atoms: _261  and  _262
REMARK  111  A    between atoms: _262  and  _263
REMARK  112  A    between atoms: _263  and  _264
REMARK  113  A    between atoms: _273  and  _275
REMARK  114  A    between atoms: _275  and  _276
REMARK  115  A    between atoms: _275  and  _278
REMARK  116  A    between atoms: _278  and  _279
REMARK  117  A    between atoms: _284  and  _286
REMARK  118  A    between atoms: _286  and  _287
REMARK  119  A    between atoms: _286  and  _289
REMARK  120  A    between atoms: _289  and  _290
REMARK  121  A    between atoms: _290  and  _291
REMARK  122  A    between atoms: _291  and  _292
REMARK  123  A    between atoms: _301  and  _303
REMARK  124  A    between atoms: _303  and  _304
REMARK  125  A    between atoms: _303  and  _306
REMARK  126  A    between atoms: _306  and  _307
REMARK  127  A    between atoms: _310  and  _312
REMARK  128  A    between atoms: _312  and  _313
REMARK  129  A    between atoms: _312  and  _315
REMARK  130  A    between atoms: _315  and  _316
REMARK  131  A    between atoms: _319  and  _321
REMARK  132  A    between atoms: _321  and  _322
REMARK  133  A    between atoms: _321  and  _324
REMARK  134  A    between atoms: _324  and  _325
REMARK  135  A    between atoms: _328  and  _330
REMARK  136  A    between atoms: _330  and  _331
REMARK  137  A    between atoms: _330  and  _333
REMARK  138  A    between atoms: _333  and  _334
REMARK  139  A    between atoms: _337  and  _339
REMARK  140  A    between atoms: _339  and  _340
REMARK  141  A    between atoms: _342  and  _344
REMARK  142  A    between atoms: _344  and  _345
REMARK  143  A    between atoms: _348  and  _350
REMARK  144  A    between atoms: _350  and  _351
REMARK  145  A    between atoms: _350  and  _353
REMARK  146  A    between atoms: _353  and  _354
REMARK  147  A    between atoms: _357  and  _359
REMARK  148  A    between atoms: _359  and  _360
REMARK  149  A    between atoms: _359  and  _362
REMARK  150  A    between atoms: _362  and  _363
REMARK  151  A    between atoms: _366  and  _368
REMARK  152  A    between atoms: _368  and  _369
REMARK  153  A    between atoms: _368  and  _371
REMARK  154  A    between atoms: _371  and  _372
REMARK  155  A    between atoms: _375  and  _377
REMARK  156  A    between atoms: _377  and  _378
REMARK  157  A    between atoms: _377  and  _380
REMARK  158  A    between atoms: _383  and  _385
REMARK  159  A    between atoms: _385  and  _386
REMARK  160  A    between atoms: _385  and  _388
REMARK  161  A    between atoms: _388  and  _389
REMARK  162  A    between atoms: _389  and  _390
REMARK  163  A    between atoms: _390  and  _391
REMARK  164  A    between atoms: _391  and  _392
REMARK  165  A    between atoms: _396  and  _398
REMARK  166  A    between atoms: _398  and  _399
REMARK  167  A    between atoms: _398  and  _401
REMARK  168  A    between atoms: _401  and  _402
REMARK  169  A    between atoms: _402  and  _403
REMARK  170  A    between atoms: _405  and  _407
REMARK  171  A    between atoms: _407  and  _408
REMARK  172  A    between atoms: _407  and  _410
REMARK  173  A    between atoms: _410  and  _411
REMARK  174  A    between atoms: _414  and  _416
REMARK  175  A    between atoms: _416  and  _417
REMARK  176  A    between atoms: _419  and  _421
REMARK  177  A    between atoms: _421  and  _422
REMARK  178  A    between atoms: _424  and  _426
REMARK  179  A    between atoms: _426  and  _427
REMARK  180  A    between atoms: _426  and  _429
REMARK  181  A    between atoms: _429  and  _430
REMARK  182  A    between atoms: _433  and  _435
REMARK  183  A    between atoms: _435  and  _436
REMARK  184  A    between atoms: _438  and  _440
REMARK  185  A    between atoms: _440  and  _441
REMARK  186  A    between atoms: _443  and  _445
REMARK  187  A    between atoms: _445  and  _446
REMARK  188  A    between atoms: _445  and  _448
REMARK  189  A    between atoms: _448  and  _449
REMARK  190  A    between atoms: _455  and  _457
REMARK  191  A    between atoms: _457  and  _458
REMARK  192  A    between atoms: _457  and  _460
REMARK  193  A    between atoms: _460  and  _461
REMARK  194  A    between atoms: _464  and  _466
REMARK  195  A    between atoms: _466  and  _467
REMARK  196  A    between atoms: _466  and  _469
REMARK  197  A    between atoms: _469  and  _470
REMARK  198  A    between atoms: _473  and  _475
REMARK  199  A    between atoms: _475  and  _476
REMARK  200  A    between atoms: _475  and  _478
REMARK  201  A    between atoms: _478  and  _479
REMARK  202  A    between atoms: _483  and  _484
REMARK  203  A    between atoms: _489  and  _491
REMARK  204  A    between atoms: _491  and  _492
REMARK  205  A    between atoms: _491  and  _494
REMARK  206  A    between atoms: _497  and  _499
REMARK  207  A    between atoms: _499  and  _500
REMARK  208  A    between atoms: _499  and  _502
REMARK  209  A    between atoms: _502  and  _503
REMARK  210  A    between atoms: _508  and  _510
REMARK  211  A    between atoms: _510  and  _511
REMARK  212  A    between atoms: _510  and  _513
REMARK  213  A    between atoms: _513  and  _514
REMARK  214  A    between atoms: _517  and  _519
REMARK  215  A    between atoms: _519  and  _520
REMARK  216  A    between atoms: _519  and  _522
REMARK  217  A    between atoms: _522  and  _523
REMARK  218  A    between atoms: _526  and  _528
REMARK  219  A    between atoms: _528  and  _529
REMARK  220  A    between atoms: _531  and  _533
REMARK  221  A    between atoms: _533  and  _534
REMARK  222  A    between atoms: _533  and  _536
REMARK  223  A    between atoms: _536  and  _537
REMARK  224  A    between atoms: _537  and  _538
REMARK  225  A    between atoms: _538  and  _539
REMARK  226  A    between atoms: _548  and  _550
REMARK  227  A    between atoms: _550  and  _551
REMARK  228  A    between atoms: _550  and  _553
REMARK  229  A    between atoms: _553  and  _554
REMARK                            x       y       z     vdW  Elec       q    Type
REMARK                         _______ _______ _______ _____ _____    ______ ____
ROOT
ATOM      1  O   HOH     1      16.439  15.192   9.585  0.00  0.00    +0.000 OA
ENDROOT
TORSDOF 0
REMARK  Name = ../refined-set-2016/2i4d/2i4d_pocket.pdb
REMARK  229 active torsions:
REMARK  status: ('A' for Active; 'I' for Inactive)
REMARK    1  A    between atoms: _1  and  _3
REMARK    2  A    between atoms: _3  and  _4
REMARK    3  A    between atoms: _3  and  _6
REMARK    4  A    between atoms: _6  and  _7
REMARK    5  A    between atoms: _7  and  _8
REMARK    6  A    between atoms: _8  and  _9
REMARK    7  A    between atoms: _18  and  _20
REMARK    8  A    between atoms: _20  and  _21
REMARK    9  A    between atoms: _20  and  _23
REMARK   10  A    between atoms: _23  and  _24
REMARK   11  A    between atoms: _27  and  _29
REMARK   12  A    between atoms: _29  and  _30
REMARK   13  A    between atoms: _29  and  _32
REMARK   14  A    between atoms: _32  and  _33
REMARK   15  A    between atoms: _36  and  _38
REMARK   16  A    between atoms: _38  and  _39
REMARK   17  A    between atoms: _38  and  _41
REMARK   18  A    between atoms: _41  and  _42
REMARK   19  A    between atoms: _45  and  _47
REMARK   20  A    between atoms: _47  and  _48
REMARK   21  A    between atoms: _47  and  _50
REMARK   22  A    between atoms: _50  and  _51
REMARK   23  A    between atoms: _54  and  _56
REMARK   24  A    between atoms: _56  and  _57
REMARK   25  A    between atoms: _59  and  _61
REMARK   26  A    between atoms: _61  and  _62
REMARK   27  A    between atoms: _65  and  _67
REMARK   28  A    between atoms: _67  and  _68
REMARK   29  A    between atoms: _67  and  _70
REMARK   30  A    between atoms: _70  and  _71
REMARK   31  A    between atoms: _74  and  _76
REMARK   32  A    between atoms: _76  and  _77
REMARK   33  A    between atoms: _76  and  _79
REMARK   34  A    between atoms: _79  and  _80
REMARK   35  A    between atoms: _83  and  _85
REMARK   36  A    between atoms: _85  and  _86
REMARK   37  A    between atoms: _85  and  _88
REMARK   38  A    between atoms: _88  and  _89
REMARK   39  A    between atoms: _92  and  _94
REMARK   40  A    between atoms: _94  and  _95
REMARK   41  A    between atoms: _94  and  _97
REMARK   42  A    between atoms: _100  and  _102
REMARK   43  A    between atoms: _102  and  _103
REMARK   44  A    between atoms: _102  and  _105
REMARK   45  A    between atoms: _105  and  _106
REMARK   46  A    between atoms: _106  and  _107
REMARK   47  A    between atoms: _107  and  _108
REMARK   48  A    between atoms: _108  and  _109
REMARK   49  A    between atoms: _113  and  _115
REMARK   50  A    between atoms: _115  and  _116
REMARK   51  A    between atoms: _115  and  _118
REMARK   52  A    between atoms: _118  and  _119
REMARK   53  A    between atoms: _119  and  _120
REMARK   54  A    between atoms: _122  and  _124
REMARK   55  A    between atoms: _124  and  _125
REMARK   56  A    between atoms: _124  and  _127
REMARK   57  A    between atoms: _127  and  _128
REMARK   58  A    between atoms: _131  and  _133
REMARK   59  A    between atoms: _133  and  _134
REMARK   60  A    between atoms: _136  and  _138
REMARK   61  A    between atoms: _138  and  _139
REMARK   62  A    between atoms: _141  and  _143
REMARK   63  A    between atoms: _143  and  _144
REMARK   64  A    between atoms: _143  and  _146
REMARK   65  A    between atoms: _146  and  _147
REMARK   66  A    between atoms: _150  and  _152
REMARK   67  A    between atoms: _152  and  _153
REMARK   68  A    between atoms: _155  and  _157
REMARK   69  A    between atoms: _157  and  _158
REMARK   70  A    between atoms: _160  and  _162
REMARK   71  A    between atoms: _162  and  _163
REMARK   72  A    between atoms: _162  and  _165
REMARK   73  A    between atoms: _165  and  _166
REMARK   74  A    between atoms: _172  and  _174
REMARK   75  A    between atoms: _174  and  _175
REMARK   76  A    between atoms: _174  and  _177
REMARK   77  A    between atoms: _177  and  _178
REMARK   78  A    between atoms: _181  and  _183
REMARK   79  A    between atoms: _183  and  _184
REMARK   80  A    between atoms: _183  and  _186
REMARK   81  A    between atoms: _189  and  _191
REMARK   82  A    between atoms: _191  and  _192
REMARK   83  A    between atoms: _191  and  _194
REMARK   84  A    between atoms: _194  and  _195
REMARK   85  A    between atoms: _198  and  _200
REMARK   86  A    between atoms: _200  and  _201
REMARK   87  A    between atoms: _200  and  _203
REMARK   88  A    between atoms: _203  and  _204
REMARK   89  A    between atoms: _208  and  _209
REMARK   90  A    between atoms: _214  and  _216
REMARK   91  A    between atoms: _216  and  _217
REMARK   92  A    between atoms: _216  and  _219
REMARK   93  A    between atoms: _222  and  _224
REMARK   94  A    between atoms: _224  and  _225
REMARK   95  A    between atoms: _224  and  _227
REMARK   96  A    between atoms: _227  and  _228
REMARK   97  A    between atoms: _233  and  _235
REMARK   98  A    between atoms: _235  and  _236
REMARK   99  A    between atoms: _235  and  _238
REMARK  100  A    between atoms: _238  and  _239
REMARK  101  A    between atoms: _242  and  _244
REMARK  102  A    between atoms: _244  and  _245
REMARK  103  A    between atoms: _244  and  _247
REMARK  104  A    between atoms: _247  and  _248
REMARK  105  A    between atoms: _251  and  _253
REMARK  106  A    between atoms: _253  and  _254
REMARK  107  A    between atoms: _256  and  _258
REMARK  108  A    between atoms: _258  and  _259
REMARK  109  A    between atoms: _258  and  _261
REMARK  110  A    between atoms: _261  and  _262
REMARK  111  A    between atoms: _262  and  _263
REMARK  112  A    between atoms: _263  and  _264
REMARK  113  A    between atoms: _273  and  _275
REMARK  114  A    between atoms: _275  and  _276
REMARK  115  A    between atoms: _275  and  _278
REMARK  116  A    between atoms: _278  and  _279
REMARK  117  A    between atoms: _284  and  _286
REMARK  118  A    between atoms: _286  and  _287
REMARK  119  A    between atoms: _286  and  _289
REMARK  120  A    between atoms: _289  and  _290
REMARK  121  A    between atoms: _290  and  _291
REMARK  122  A    between atoms: _291  and  _292
REMARK  123  A    between atoms: _301  and  _303
REMARK  124  A    between atoms: _303  and  _304
REMARK  125  A    between atoms: _303  and  _306
REMARK  126  A    between atoms: _306  and  _307
REMARK  127  A    between atoms: _310  and  _312
REMARK  128  A    between atoms: _312  and  _313
REMARK  129  A    between atoms: _312  and  _315
REMARK  130  A    between atoms: _315  and  _316
REMARK  131  A    between atoms: _319  and  _321
REMARK  132  A    between atoms: _321  and  _322
REMARK  133  A    between atoms: _321  and  _324
REMARK  134  A    between atoms: _324  and  _325
REMARK  135  A    between atoms: _328  and  _330
REMARK  136  A    between atoms: _330  and  _331
REMARK  137  A    between atoms: _330  and  _333
REMARK  138  A    between atoms: _333  and  _334
REMARK  139  A    between atoms: _337  and  _339
REMARK  140  A    between atoms: _339  and  _340
REMARK  141  A    between atoms: _342  and  _344
REMARK  142  A    between atoms: _344  and  _345
REMARK  143  A    between atoms: _348  and  _350
REMARK  144  A    between atoms: _350  and  _351
REMARK  145  A    between atoms: _350  and  _353
REMARK  146  A    between atoms: _353  and  _354
REMARK  147  A    between atoms: _357  and  _359
REMARK  148  A    between atoms: _359  and  _360
REMARK  149  A    between atoms: _359  and  _362
REMARK  150  A    between atoms: _362  and  _363
REMARK  151  A    between atoms: _366  and  _368
REMARK  152  A    between atoms: _368  and  _369
REMARK  153  A    between atoms: _368  and  _371
REMARK  154  A    between atoms: _371  and  _372
REMARK  155  A    between atoms: _375  and  _377
REMARK  156  A    between atoms: _377  and  _378
REMARK  157  A    between atoms: _377  and  _380
REMARK  158  A    between atoms: _383  and  _385
REMARK  159  A    between atoms: _385  and  _386
REMARK  160  A    between atoms: _385  and  _388
REMARK  161  A    between atoms: _388  and  _389
REMARK  162  A    between atoms: _389  and  _390
REMARK  163  A    between atoms: _390  and  _391
REMARK  164  A    between atoms: _391  and  _392
REMARK  165  A    between atoms: _396  and  _398
REMARK  166  A    between atoms: _398  and  _399
REMARK  167  A    between atoms: _398  and  _401
REMARK  168  A    between atoms: _401  and  _402
REMARK  169  A    between atoms: _402  and  _403
REMARK  170  A    between atoms: _405  and  _407
REMARK  171  A    between atoms: _407  and  _408
REMARK  172  A    between atoms: _407  and  _410
REMARK  173  A    between atoms: _410  and  _411
REMARK  174  A    between atoms: _414  and  _416
REMARK  175  A    between atoms: _416  and  _417
REMARK  176  A    between atoms: _419  and  _421
REMARK  177  A    between atoms: _421  and  _422
REMARK  178  A    between atoms: _424  and  _426
REMARK  179  A    between atoms: _426  and  _427
REMARK  180  A    between atoms: _426  and  _429
REMARK  181  A    between atoms: _429  and  _430
REMARK  182  A    between atoms: _433  and  _435
REMARK  183  A    between atoms: _435  and  _436
REMARK  184  A    between atoms: _438  and  _440
REMARK  185  A    between atoms: _440  and  _441
REMARK  186  A    between atoms: _443  and  _445
REMARK  187  A    between atoms: _445  and  _446
REMARK  188  A    between atoms: _445  and  _448
REMARK  189  A    between atoms: _448  and  _449
REMARK  190  A    between atoms: _455  and  _457
REMARK  191  A    between atoms: _457  and  _458
REMARK  192  A    between atoms: _457  and  _460
REMARK  193  A    between atoms: _460  and  _461
REMARK  194  A    between atoms: _464  and  _466
REMARK  195  A    between atoms: _466  and  _467
REMARK  196  A    between atoms: _466  and  _469
REMARK  197  A    between atoms: _469  and  _470
REMARK  198  A    between atoms: _473  and  _475
REMARK  199  A    between atoms: _475  and  _476
REMARK  200  A    between atoms: _475  and  _478
REMARK  201  A    between atoms: _478  and  _479
REMARK  202  A    between atoms: _483  and  _484
REMARK  203  A    between atoms: _489  and  _491
REMARK  204  A    between atoms: _491  and  _492
REMARK  205  A    between atoms: _491  and  _494
REMARK  206  A    between atoms: _497  and  _499
REMARK  207  A    between atoms: _499  and  _500
REMARK  208  A    between atoms: _499  and  _502
REMARK  209  A    between atoms: _502  and  _503
REMARK  210  A    between atoms: _508  and  _510
REMARK  211  A    between atoms: _510  and  _511
REMARK  212  A    between atoms: _510  and  _513
REMARK  213  A    between atoms: _513  and  _514
REMARK  214  A    between atoms: _517  and  _519
REMARK  215  A    between atoms: _519  and  _520
REMARK  216  A    between atoms: _519  and  _522
REMARK  217  A    between atoms: _522  and  _523
REMARK  218  A    between atoms: _526  and  _528
REMARK  219  A    between atoms: _528  and  _529
REMARK  220  A    between atoms: _531  and  _533
REMARK  221  A    between atoms: _533  and  _534
REMARK  222  A    between atoms: _533  and  _536
REMARK  223  A    between atoms: _536  and  _537
REMARK  224  A    between atoms: _537  and  _538
REMARK  225  A    between atoms: _538  and  _539
REMARK  226  A    between atoms: _548  and  _550
REMARK  227  A    between atoms: _550  and  _551
REMARK  228  A    between atoms: _550  and  _553
REMARK  229  A    between atoms: _553  and  _554
REMARK                            x       y       z     vdW  Elec       q    Type
REMARK                         _______ _______ _______ _____ _____    ______ ____
ROOT
ATOM      1  O   HOH     1       3.428  18.049  16.918  0.00  0.00    +0.000 OA
ENDROOT
TORSDOF 0
REMARK  Name = ../refined-set-2016/2i4d/2i4d_pocket.pdb
REMARK  229 active torsions:
REMARK  status: ('A' for Active; 'I' for Inactive)
REMARK    1  A    between atoms: _1  and  _3
REMARK    2  A    between atoms: _3  and  _4
REMARK    3  A    between atoms: _3  and  _6
REMARK    4  A    between atoms: _6  and  _7
REMARK    5  A    between atoms: _7  and  _8
REMARK    6  A    between atoms: _8  and  _9
REMARK    7  A    between atoms: _18  and  _20
REMARK    8  A    between atoms: _20  and  _21
REMARK    9  A    between atoms: _20  and  _23
REMARK   10  A    between atoms: _23  and  _24
REMARK   11  A    between atoms: _27  and  _29
REMARK   12  A    between atoms: _29  and  _30
REMARK   13  A    between atoms: _29  and  _32
REMARK   14  A    between atoms: _32  and  _33
REMARK   15  A    between atoms: _36  and  _38
REMARK   16  A    between atoms: _38  and  _39
REMARK   17  A    between atoms: _38  and  _41
REMARK   18  A    between atoms: _41  and  _42
REMARK   19  A    between atoms: _45  and  _47
REMARK   20  A    between atoms: _47  and  _48
REMARK   21  A    between atoms: _47  and  _50
REMARK   22  A    between atoms: _50  and  _51
REMARK   23  A    between atoms: _54  and  _56
REMARK   24  A    between atoms: _56  and  _57
REMARK   25  A    between atoms: _59  and  _61
REMARK   26  A    between atoms: _61  and  _62
REMARK   27  A    between atoms: _65  and  _67
REMARK   28  A    between atoms: _67  and  _68
REMARK   29  A    between atoms: _67  and  _70
REMARK   30  A    between atoms: _70  and  _71
REMARK   31  A    between atoms: _74  and  _76
REMARK   32  A    between atoms: _76  and  _77
REMARK   33  A    between atoms: _76  and  _79
REMARK   34  A    between atoms: _79  and  _80
REMARK   35  A    between atoms: _83  and  _85
REMARK   36  A    between atoms: _85  and  _86
REMARK   37  A    between atoms: _85  and  _88
REMARK   38  A    between atoms: _88  and  _89
REMARK   39  A    between atoms: _92  and  _94
REMARK   40  A    between atoms: _94  and  _95
REMARK   41  A    between atoms: _94  and  _97
REMARK   42  A    between atoms: _100  and  _102
REMARK   43  A    between atoms: _102  and  _103
REMARK   44  A    between atoms: _102  and  _105
REMARK   45  A    between atoms: _105  and  _106
REMARK   46  A    between atoms: _106  and  _107
REMARK   47  A    between atoms: _107  and  _108
REMARK   48  A    between atoms: _108  and  _109
REMARK   49  A    between atoms: _113  and  _115
REMARK   50  A    between atoms: _115  and  _116
REMARK   51  A    between atoms: _115  and  _118
REMARK   52  A    between atoms: _118  and  _119
REMARK   53  A    between atoms: _119  and  _120
REMARK   54  A    between atoms: _122  and  _124
REMARK   55  A    between atoms: _124  and  _125
REMARK   56  A    between atoms: _124  and  _127
REMARK   57  A    between atoms: _127  and  _128
REMARK   58  A    between atoms: _131  and  _133
REMARK   59  A    between atoms: _133  and  _134
REMARK   60  A    between atoms: _136  and  _138
REMARK   61  A    between atoms: _138  and  _139
REMARK   62  A    between atoms: _141  and  _143
REMARK   63  A    between atoms: _143  and  _144
REMARK   64  A    between atoms: _143  and  _146
REMARK   65  A    between atoms: _146  and  _147
REMARK   66  A    between atoms: _150  and  _152
REMARK   67  A    between atoms: _152  and  _153
REMARK   68  A    between atoms: _155  and  _157
REMARK   69  A    between atoms: _157  and  _158
REMARK   70  A    between atoms: _160  and  _162
REMARK   71  A    between atoms: _162  and  _163
REMARK   72  A    between atoms: _162  and  _165
REMARK   73  A    between atoms: _165  and  _166
REMARK   74  A    between atoms: _172  and  _174
REMARK   75  A    between atoms: _174  and  _175
REMARK   76  A    between atoms: _174  and  _177
REMARK   77  A    between atoms: _177  and  _178
REMARK   78  A    between atoms: _181  and  _183
REMARK   79  A    between atoms: _183  and  _184
REMARK   80  A    between atoms: _183  and  _186
REMARK   81  A    between atoms: _189  and  _191
REMARK   82  A    between atoms: _191  and  _192
REMARK   83  A    between atoms: _191  and  _194
REMARK   84  A    between atoms: _194  and  _195
REMARK   85  A    between atoms: _198  and  _200
REMARK   86  A    between atoms: _200  and  _201
REMARK   87  A    between atoms: _200  and  _203
REMARK   88  A    between atoms: _203  and  _204
REMARK   89  A    between atoms: _208  and  _209
REMARK   90  A    between atoms: _214  and  _216
REMARK   91  A    between atoms: _216  and  _217
REMARK   92  A    between atoms: _216  and  _219
REMARK   93  A    between atoms: _222  and  _224
REMARK   94  A    between atoms: _224  and  _225
REMARK   95  A    between atoms: _224  and  _227
REMARK   96  A    between atoms: _227  and  _228
REMARK   97  A    between atoms: _233  and  _235
REMARK   98  A    between atoms: _235  and  _236
REMARK   99  A    between atoms: _235  and  _238
REMARK  100  A    between atoms: _238  and  _239
REMARK  101  A    between atoms: _242  and  _244
REMARK  102  A    between atoms: _244  and  _245
REMARK  103  A    between atoms: _244  and  _247
REMARK  104  A    between atoms: _247  and  _248
REMARK  105  A    between atoms: _251  and  _253
REMARK  106  A    between atoms: _253  and  _254
REMARK  107  A    between atoms: _256  and  _258
REMARK  108  A    between atoms: _258  and  _259
REMARK  109  A    between atoms: _258  and  _261
REMARK  110  A    between atoms: _261  and  _262
REMARK  111  A    between atoms: _262  and  _263
REMARK  112  A    between atoms: _263  and  _264
REMARK  113  A    between atoms: _273  and  _275
REMARK  114  A    between atoms: _275  and  _276
REMARK  115  A    between atoms: _275  and  _278
REMARK  116  A    between atoms: _278  and  _279
REMARK  117  A    between atoms: _284  and  _286
REMARK  118  A    between atoms: _286  and  _287
REMARK  119  A    between atoms: _286  and  _289
REMARK  120  A    between atoms: _289  and  _290
REMARK  121  A    between atoms: _290  and  _291
REMARK  122  A    between atoms: _291  and  _292
REMARK  123  A    between atoms: _301  and  _303
REMARK  124  A    between atoms: _303  and  _304
REMARK  125  A    between atoms: _303  and  _306
REMARK  126  A    between atoms: _306  and  _307
REMARK  127  A    between atoms: _310  and  _312
REMARK  128  A    between atoms: _312  and  _313
REMARK  129  A    between atoms: _312  and  _315
REMARK  130  A    between atoms: _315  and  _316
REMARK  131  A    between atoms: _319  and  _321
REMARK  132  A    between atoms: _321  and  _322
REMARK  133  A    between atoms: _321  and  _324
REMARK  134  A    between atoms: _324  and  _325
REMARK  135  A    between atoms: _328  and  _330
REMARK  136  A    between atoms: _330  and  _331
REMARK  137  A    between atoms: _330  and  _333
REMARK  138  A    between atoms: _333  and  _334
REMARK  139  A    between atoms: _337  and  _339
REMARK  140  A    between atoms: _339  and  _340
REMARK  141  A    between atoms: _342  and  _344
REMARK  142  A    between atoms: _344  and  _345
REMARK  143  A    between atoms: _348  and  _350
REMARK  144  A    between atoms: _350  and  _351
REMARK  145  A    between atoms: _350  and  _353
REMARK  146  A    between atoms: _353  and  _354
REMARK  147  A    between atoms: _357  and  _359
REMARK  148  A    between atoms: _359  and  _360
REMARK  149  A    between atoms: _359  and  _362
REMARK  150  A    between atoms: _362  and  _363
REMARK  151  A    between atoms: _366  and  _368
REMARK  152  A    between atoms: _368  and  _369
REMARK  153  A    between atoms: _368  and  _371
REMARK  154  A    between atoms: _371  and  _372
REMARK  155  A    between atoms: _375  and  _377
REMARK  156  A    between atoms: _377  and  _378
REMARK  157  A    between atoms: _377  and  _380
REMARK  158  A    between atoms: _383  and  _385
REMARK  159  A    between atoms: _385  and  _386
REMARK  160  A    between atoms: _385  and  _388
REMARK  161  A    between atoms: _388  and  _389
REMARK  162  A    between atoms: _389  and  _390
REMARK  163  A    between atoms: _390  and  _391
REMARK  164  A    between atoms: _391  and  _392
REMARK  165  A    between atoms: _396  and  _398
REMARK  166  A    between atoms: _398  and  _399
REMARK  167  A    between atoms: _398  and  _401
REMARK  168  A    between atoms: _401  and  _402
REMARK  169  A    between atoms: _402  and  _403
REMARK  170  A    between atoms: _405  and  _407
REMARK  171  A    between atoms: _407  and  _408
REMARK  172  A    between atoms: _407  and  _410
REMARK  173  A    between atoms: _410  and  _411
REMARK  174  A    between atoms: _414  and  _416
REMARK  175  A    between atoms: _416  and  _417
REMARK  176  A    between atoms: _419  and  _421
REMARK  177  A    between atoms: _421  and  _422
REMARK  178  A    between atoms: _424  and  _426
REMARK  179  A    between atoms: _426  and  _427
REMARK  180  A    between atoms: _426  and  _429
REMARK  181  A    between atoms: _429  and  _430
REMARK  182  A    between atoms: _433  and  _435
REMARK  183  A    between atoms: _435  and  _436
REMARK  184  A    between atoms: _438  and  _440
REMARK  185  A    between atoms: _440  and  _441
REMARK  186  A    between atoms: _443  and  _445
REMARK  187  A    between atoms: _445  and  _446
REMARK  188  A    between atoms: _445  and  _448
REMARK  189  A    between atoms: _448  and  _449
REMARK  190  A    between atoms: _455  and  _457
REMARK  191  A    between atoms: _457  and  _458
REMARK  192  A    between atoms: _457  and  _460
REMARK  193  A    between atoms: _460  and  _461
REMARK  194  A    between atoms: _464  and  _466
REMARK  195  A    between atoms: _466  and  _467
REMARK  196  A    between atoms: _466  and  _469
REMARK  197  A    between atoms: _469  and  _470
REMARK  198  A    between atoms: _473  and  _475
REMARK  199  A    between atoms: _475  and  _476
REMARK  200  A    between atoms: _475  and  _478
REMARK  201  A    between atoms: _478  and  _479
REMARK  202  A    between atoms: _483  and  _484
REMARK  203  A    between atoms: _489  and  _491
REMARK  204  A    between atoms: _491  and  _492
REMARK  205  A    between atoms: _491  and  _494
REMARK  206  A    between atoms: _497  and  _499
REMARK  207  A    between atoms: _499  and  _500
REMARK  208  A    between atoms: _499  and  _502
REMARK  209  A    between atoms: _502  and  _503
REMARK  210  A    between atoms: _508  and  _510
REMARK  211  A    between atoms: _510  and  _511
REMARK  212  A    between atoms: _510  and  _513
REMARK  213  A    between atoms: _513  and  _514
REMARK  214  A    between atoms: _517  and  _519
REMARK  215  A    between atoms: _519  and  _520
REMARK  216  A    between atoms: _519  and  _522
REMARK  217  A    between atoms: _522  and  _523
REMARK  218  A    between atoms: _526  and  _528
REMARK  219  A    between atoms: _528  and  _529
REMARK  220  A    between atoms: _531  and  _533
REMARK  221  A    between atoms: _533  and  _534
REMARK  222  A    between atoms: _533  and  _536
REMARK  223  A    between atoms: _536  and  _537
REMARK  224  A    between atoms: _537  and  _538
REMARK  225  A    between atoms: _538  and  _539
REMARK  226  A    between atoms: _548  and  _550
REMARK  227  A    between atoms: _550  and  _551
REMARK  228  A    between atoms: _550  and  _553
REMARK  229  A    between atoms: _553  and  _554
REMARK                            x       y       z     vdW  Elec       q    Type
REMARK                         _______ _______ _______ _____ _____    ______ ____
ROOT
ATOM      1  O   HOH     1       6.493  16.009  25.447  0.00  0.00    +0.000 OA
ENDROOT
TORSDOF 0
REMARK  Name = ../refined-set-2016/2i4d/2i4d_pocket.pdb
REMARK  229 active torsions:
REMARK  status: ('A' for Active; 'I' for Inactive)
REMARK    1  A    between atoms: _1  and  _3
REMARK    2  A    between atoms: _3  and  _4
REMARK    3  A    between atoms: _3  and  _6
REMARK    4  A    between atoms: _6  and  _7
REMARK    5  A    between atoms: _7  and  _8
REMARK    6  A    between atoms: _8  and  _9
REMARK    7  A    between atoms: _18  and  _20
REMARK    8  A    between atoms: _20  and  _21
REMARK    9  A    between atoms: _20  and  _23
REMARK   10  A    between atoms: _23  and  _24
REMARK   11  A    between atoms: _27  and  _29
REMARK   12  A    between atoms: _29  and  _30
REMARK   13  A    between atoms: _29  and  _32
REMARK   14  A    between atoms: _32  and  _33
REMARK   15  A    between atoms: _36  and  _38
REMARK   16  A    between atoms: _38  and  _39
REMARK   17  A    between atoms: _38  and  _41
REMARK   18  A    between atoms: _41  and  _42
REMARK   19  A    between atoms: _45  and  _47
REMARK   20  A    between atoms: _47  and  _48
REMARK   21  A    between atoms: _47  and  _50
REMARK   22  A    between atoms: _50  and  _51
REMARK   23  A    between atoms: _54  and  _56
REMARK   24  A    between atoms: _56  and  _57
REMARK   25  A    between atoms: _59  and  _61
REMARK   26  A    between atoms: _61  and  _62
REMARK   27  A    between atoms: _65  and  _67
REMARK   28  A    between atoms: _67  and  _68
REMARK   29  A    between atoms: _67  and  _70
REMARK   30  A    between atoms: _70  and  _71
REMARK   31  A    between atoms: _74  and  _76
REMARK   32  A    between atoms: _76  and  _77
REMARK   33  A    between atoms: _76  and  _79
REMARK   34  A    between atoms: _79  and  _80
REMARK   35  A    between atoms: _83  and  _85
REMARK   36  A    between atoms: _85  and  _86
REMARK   37  A    between atoms: _85  and  _88
REMARK   38  A    between atoms: _88  and  _89
REMARK   39  A    between atoms: _92  and  _94
REMARK   40  A    between atoms: _94  and  _95
REMARK   41  A    between atoms: _94  and  _97
REMARK   42  A    between atoms: _100  and  _102
REMARK   43  A    between atoms: _102  and  _103
REMARK   44  A    between atoms: _102  and  _105
REMARK   45  A    between atoms: _105  and  _106
REMARK   46  A    between atoms: _106  and  _107
REMARK   47  A    between atoms: _107  and  _108
REMARK   48  A    between atoms: _108  and  _109
REMARK   49  A    between atoms: _113  and  _115
REMARK   50  A    between atoms: _115  and  _116
REMARK   51  A    between atoms: _115  and  _118
REMARK   52  A    between atoms: _118  and  _119
REMARK   53  A    between atoms: _119  and  _120
REMARK   54  A    between atoms: _122  and  _124
REMARK   55  A    between atoms: _124  and  _125
REMARK   56  A    between atoms: _124  and  _127
REMARK   57  A    between atoms: _127  and  _128
REMARK   58  A    between atoms: _131  and  _133
REMARK   59  A    between atoms: _133  and  _134
REMARK   60  A    between atoms: _136  and  _138
REMARK   61  A    between atoms: _138  and  _139
REMARK   62  A    between atoms: _141  and  _143
REMARK   63  A    between atoms: _143  and  _144
REMARK   64  A    between atoms: _143  and  _146
REMARK   65  A    between atoms: _146  and  _147
REMARK   66  A    between atoms: _150  and  _152
REMARK   67  A    between atoms: _152  and  _153
REMARK   68  A    between atoms: _155  and  _157
REMARK   69  A    between atoms: _157  and  _158
REMARK   70  A    between atoms: _160  and  _162
REMARK   71  A    between atoms: _162  and  _163
REMARK   72  A    between atoms: _162  and  _165
REMARK   73  A    between atoms: _165  and  _166
REMARK   74  A    between atoms: _172  and  _174
REMARK   75  A    between atoms: _174  and  _175
REMARK   76  A    between atoms: _174  and  _177
REMARK   77  A    between atoms: _177  and  _178
REMARK   78  A    between atoms: _181  and  _183
REMARK   79  A    between atoms: _183  and  _184
REMARK   80  A    between atoms: _183  and  _186
REMARK   81  A    between atoms: _189  and  _191
REMARK   82  A    between atoms: _191  and  _192
REMARK   83  A    between atoms: _191  and  _194
REMARK   84  A    between atoms: _194  and  _195
REMARK   85  A    between atoms: _198  and  _200
REMARK   86  A    between atoms: _200  and  _201
REMARK   87  A    between atoms: _200  and  _203
REMARK   88  A    between atoms: _203  and  _204
REMARK   89  A    between atoms: _208  and  _209
REMARK   90  A    between atoms: _214  and  _216
REMARK   91  A    between atoms: _216  and  _217
REMARK   92  A    between atoms: _216  and  _219
REMARK   93  A    between atoms: _222  and  _224
REMARK   94  A    between atoms: _224  and  _225
REMARK   95  A    between atoms: _224  and  _227
REMARK   96  A    between atoms: _227  and  _228
REMARK   97  A    between atoms: _233  and  _235
REMARK   98  A    between atoms: _235  and  _236
REMARK   99  A    between atoms: _235  and  _238
REMARK  100  A    between atoms: _238  and  _239
REMARK  101  A    between atoms: _242  and  _244
REMARK  102  A    between atoms: _244  and  _245
REMARK  103  A    between atoms: _244  and  _247
REMARK  104  A    between atoms: _247  and  _248
REMARK  105  A    between atoms: _251  and  _253
REMARK  106  A    between atoms: _253  and  _254
REMARK  107  A    between atoms: _256  and  _258
REMARK  108  A    between atoms: _258  and  _259
REMARK  109  A    between atoms: _258  and  _261
REMARK  110  A    between atoms: _261  and  _262
REMARK  111  A    between atoms: _262  and  _263
REMARK  112  A    between atoms: _263  and  _264
REMARK  113  A    between atoms: _273  and  _275
REMARK  114  A    between atoms: _275  and  _276
REMARK  115  A    between atoms: _275  and  _278
REMARK  116  A    between atoms: _278  and  _279
REMARK  117  A    between atoms: _284  and  _286
REMARK  118  A    between atoms: _286  and  _287
REMARK  119  A    between atoms: _286  and  _289
REMARK  120  A    between atoms: _289  and  _290
REMARK  121  A    between atoms: _290  and  _291
REMARK  122  A    between atoms: _291  and  _292
REMARK  123  A    between atoms: _301  and  _303
REMARK  124  A    between atoms: _303  and  _304
REMARK  125  A    between atoms: _303  and  _306
REMARK  126  A    between atoms: _306  and  _307
REMARK  127  A    between atoms: _310  and  _312
REMARK  128  A    between atoms: _312  and  _313
REMARK  129  A    between atoms: _312  and  _315
REMARK  130  A    between atoms: _315  and  _316
REMARK  131  A    between atoms: _319  and  _321
REMARK  132  A    between atoms: _321  and  _322
REMARK  133  A    between atoms: _321  and  _324
REMARK  134  A    between atoms: _324  and  _325
REMARK  135  A    between atoms: _328  and  _330
REMARK  136  A    between atoms: _330  and  _331
REMARK  137  A    between atoms: _330  and  _333
REMARK  138  A    between atoms: _333  and  _334
REMARK  139  A    between atoms: _337  and  _339
REMARK  140  A    between atoms: _339  and  _340
REMARK  141  A    between atoms: _342  and  _344
REMARK  142  A    between atoms: _344  and  _345
REMARK  143  A    between atoms: _348  and  _350
REMARK  144  A    between atoms: _350  and  _351
REMARK  145  A    between atoms: _350  and  _353
REMARK  146  A    between atoms: _353  and  _354
REMARK  147  A    between atoms: _357  and  _359
REMARK  148  A    between atoms: _359  and  _360
REMARK  149  A    between atoms: _359  and  _362
REMARK  150  A    between atoms: _362  and  _363
REMARK  151  A    between atoms: _366  and  _368
REMARK  152  A    between atoms: _368  and  _369
REMARK  153  A    between atoms: _368  and  _371
REMARK  154  A    between atoms: _371  and  _372
REMARK  155  A    between atoms: _375  and  _377
REMARK  156  A    between atoms: _377  and  _378
REMARK  157  A    between atoms: _377  and  _380
REMARK  158  A    between atoms: _383  and  _385
REMARK  159  A    between atoms: _385  and  _386
REMARK  160  A    between atoms: _385  and  _388
REMARK  161  A    between atoms: _388  and  _389
REMARK  162  A    between atoms: _389  and  _390
REMARK  163  A    between atoms: _390  and  _391
REMARK  164  A    between atoms: _391  and  _392
REMARK  165  A    between atoms: _396  and  _398
REMARK  166  A    between atoms: _398  and  _399
REMARK  167  A    between atoms: _398  and  _401
REMARK  168  A    between atoms: _401  and  _402
REMARK  169  A    between atoms: _402  and  _403
REMARK  170  A    between atoms: _405  and  _407
REMARK  171  A    between atoms: _407  and  _408
REMARK  172  A    between atoms: _407  and  _410
REMARK  173  A    between atoms: _410  and  _411
REMARK  174  A    between atoms: _414  and  _416
REMARK  175  A    between atoms: _416  and  _417
REMARK  176  A    between atoms: _419  and  _421
REMARK  177  A    between atoms: _421  and  _422
REMARK  178  A    between atoms: _424  and  _426
REMARK  179  A    between atoms: _426  and  _427
REMARK  180  A    between atoms: _426  and  _429
REMARK  181  A    between atoms: _429  and  _430
REMARK  182  A    between atoms: _433  and  _435
REMARK  183  A    between atoms: _435  and  _436
REMARK  184  A    between atoms: _438  and  _440
REMARK  185  A    between atoms: _440  and  _441
REMARK  186  A    between atoms: _443  and  _445
REMARK  187  A    between atoms: _445  and  _446
REMARK  188  A    between atoms: _445  and  _448
REMARK  189  A    between atoms: _448  and  _449
REMARK  190  A    between atoms: _455  and  _457
REMARK  191  A    between atoms: _457  and  _458
REMARK  192  A    between atoms: _457  and  _460
REMARK  193  A    between atoms: _460  and  _461
REMARK  194  A    between atoms: _464  and  _466
REMARK  195  A    between atoms: _466  and  _467
REMARK  196  A    between atoms: _466  and  _469
REMARK  197  A    between atoms: _469  and  _470
REMARK  198  A    between atoms: _473  and  _475
REMARK  199  A    between atoms: _475  and  _476
REMARK  200  A    between atoms: _475  and  _478
REMARK  201  A    between atoms: _478  and  _479
REMARK  202  A    between atoms: _483  and  _484
REMARK  203  A    between atoms: _489  and  _491
REMARK  204  A    between atoms: _491  and  _492
REMARK  205  A    between atoms: _491  and  _494
REMARK  206  A    between atoms: _497  and  _499
REMARK  207  A    between atoms: _499  and  _500
REMARK  208  A    between atoms: _499  and  _502
REMARK  209  A    between atoms: _502  and  _503
REMARK  210  A    between atoms: _508  and  _510
REMARK  211  A    between atoms: _510  and  _511
REMARK  212  A    between atoms: _510  and  _513
REMARK  213  A    between atoms: _513  and  _514
REMARK  214  A    between atoms: _517  and  _519
REMARK  215  A    between atoms: _519  and  _520
REMARK  216  A    between atoms: _519  and  _522
REMARK  217  A    between atoms: _522  and  _523
REMARK  218  A    between atoms: _526  and  _528
REMARK  219  A    between atoms: _528  and  _529
REMARK  220  A    between atoms: _531  and  _533
REMARK  221  A    between atoms: _533  and  _534
REMARK  222  A    between atoms: _533  and  _536
REMARK  223  A    between atoms: _536  and  _537
REMARK  224  A    between atoms: _537  and  _538
REMARK  225  A    between atoms: _538  and  _539
REMARK  226  A    between atoms: _548  and  _550
REMARK  227  A    between atoms: _550  and  _551
REMARK  228  A    between atoms: _550  and  _553
REMARK  229  A    between atoms: _553  and  _554
REMARK                            x       y       z     vdW  Elec       q    Type
REMARK                         _______ _______ _______ _____ _____    ______ ____
ROOT
ATOM      1  O   HOH     1       7.491  18.616  11.012  0.00  0.00    +0.000 OA
ENDROOT
TORSDOF 0
REMARK  Name = ../refined-set-2016/2i4d/2i4d_pocket.pdb
REMARK  229 active torsions:
REMARK  status: ('A' for Active; 'I' for Inactive)
REMARK    1  A    between atoms: _1  and  _3
REMARK    2  A    between atoms: _3  and  _4
REMARK    3  A    between atoms: _3  and  _6
REMARK    4  A    between atoms: _6  and  _7
REMARK    5  A    between atoms: _7  and  _8
REMARK    6  A    between atoms: _8  and  _9
REMARK    7  A    between atoms: _18  and  _20
REMARK    8  A    between atoms: _20  and  _21
REMARK    9  A    between atoms: _20  and  _23
REMARK   10  A    between atoms: _23  and  _24
REMARK   11  A    between atoms: _27  and  _29
REMARK   12  A    between atoms: _29  and  _30
REMARK   13  A    between atoms: _29  and  _32
REMARK   14  A    between atoms: _32  and  _33
REMARK   15  A    between atoms: _36  and  _38
REMARK   16  A    between atoms: _38  and  _39
REMARK   17  A    between atoms: _38  and  _41
REMARK   18  A    between atoms: _41  and  _42
REMARK   19  A    between atoms: _45  and  _47
REMARK   20  A    between atoms: _47  and  _48
REMARK   21  A    between atoms: _47  and  _50
REMARK   22  A    between atoms: _50  and  _51
REMARK   23  A    between atoms: _54  and  _56
REMARK   24  A    between atoms: _56  and  _57
REMARK   25  A    between atoms: _59  and  _61
REMARK   26  A    between atoms: _61  and  _62
REMARK   27  A    between atoms: _65  and  _67
REMARK   28  A    between atoms: _67  and  _68
REMARK   29  A    between atoms: _67  and  _70
REMARK   30  A    between atoms: _70  and  _71
REMARK   31  A    between atoms: _74  and  _76
REMARK   32  A    between atoms: _76  and  _77
REMARK   33  A    between atoms: _76  and  _79
REMARK   34  A    between atoms: _79  and  _80
REMARK   35  A    between atoms: _83  and  _85
REMARK   36  A    between atoms: _85  and  _86
REMARK   37  A    between atoms: _85  and  _88
REMARK   38  A    between atoms: _88  and  _89
REMARK   39  A    between atoms: _92  and  _94
REMARK   40  A    between atoms: _94  and  _95
REMARK   41  A    between atoms: _94  and  _97
REMARK   42  A    between atoms: _100  and  _102
REMARK   43  A    between atoms: _102  and  _103
REMARK   44  A    between atoms: _102  and  _105
REMARK   45  A    between atoms: _105  and  _106
REMARK   46  A    between atoms: _106  and  _107
REMARK   47  A    between atoms: _107  and  _108
REMARK   48  A    between atoms: _108  and  _109
REMARK   49  A    between atoms: _113  and  _115
REMARK   50  A    between atoms: _115  and  _116
REMARK   51  A    between atoms: _115  and  _118
REMARK   52  A    between atoms: _118  and  _119
REMARK   53  A    between atoms: _119  and  _120
REMARK   54  A    between atoms: _122  and  _124
REMARK   55  A    between atoms: _124  and  _125
REMARK   56  A    between atoms: _124  and  _127
REMARK   57  A    between atoms: _127  and  _128
REMARK   58  A    between atoms: _131  and  _133
REMARK   59  A    between atoms: _133  and  _134
REMARK   60  A    between atoms: _136  and  _138
REMARK   61  A    between atoms: _138  and  _139
REMARK   62  A    between atoms: _141  and  _143
REMARK   63  A    between atoms: _143  and  _144
REMARK   64  A    between atoms: _143  and  _146
REMARK   65  A    between atoms: _146  and  _147
REMARK   66  A    between atoms: _150  and  _152
REMARK   67  A    between atoms: _152  and  _153
REMARK   68  A    between atoms: _155  and  _157
REMARK   69  A    between atoms: _157  and  _158
REMARK   70  A    between atoms: _160  and  _162
REMARK   71  A    between atoms: _162  and  _163
REMARK   72  A    between atoms: _162  and  _165
REMARK   73  A    between atoms: _165  and  _166
REMARK   74  A    between atoms: _172  and  _174
REMARK   75  A    between atoms: _174  and  _175
REMARK   76  A    between atoms: _174  and  _177
REMARK   77  A    between atoms: _177  and  _178
REMARK   78  A    between atoms: _181  and  _183
REMARK   79  A    between atoms: _183  and  _184
REMARK   80  A    between atoms: _183  and  _186
REMARK   81  A    between atoms: _189  and  _191
REMARK   82  A    between atoms: _191  and  _192
REMARK   83  A    between atoms: _191  and  _194
REMARK   84  A    between atoms: _194  and  _195
REMARK   85  A    between atoms: _198  and  _200
REMARK   86  A    between atoms: _200  and  _201
REMARK   87  A    between atoms: _200  and  _203
REMARK   88  A    between atoms: _203  and  _204
REMARK   89  A    between atoms: _208  and  _209
REMARK   90  A    between atoms: _214  and  _216
REMARK   91  A    between atoms: _216  and  _217
REMARK   92  A    between atoms: _216  and  _219
REMARK   93  A    between atoms: _222  and  _224
REMARK   94  A    between atoms: _224  and  _225
REMARK   95  A    between atoms: _224  and  _227
REMARK   96  A    between atoms: _227  and  _228
REMARK   97  A    between atoms: _233  and  _235
REMARK   98  A    between atoms: _235  and  _236
REMARK   99  A    between atoms: _235  and  _238
REMARK  100  A    between atoms: _238  and  _239
REMARK  101  A    between atoms: _242  and  _244
REMARK  102  A    between atoms: _244  and  _245
REMARK  103  A    between atoms: _244  and  _247
REMARK  104  A    between atoms: _247  and  _248
REMARK  105  A    between atoms: _251  and  _253
REMARK  106  A    between atoms: _253  and  _254
REMARK  107  A    between atoms: _256  and  _258
REMARK  108  A    between atoms: _258  and  _259
REMARK  109  A    between atoms: _258  and  _261
REMARK  110  A    between atoms: _261  and  _262
REMARK  111  A    between atoms: _262  and  _263
REMARK  112  A    between atoms: _263  and  _264
REMARK  113  A    between atoms: _273  and  _275
REMARK  114  A    between atoms: _275  and  _276
REMARK  115  A    between atoms: _275  and  _278
REMARK  116  A    between atoms: _278  and  _279
REMARK  117  A    between atoms: _284  and  _286
REMARK  118  A    between atoms: _286  and  _287
REMARK  119  A    between atoms: _286  and  _289
REMARK  120  A    between atoms: _289  and  _290
REMARK  121  A    between atoms: _290  and  _291
REMARK  122  A    between atoms: _291  and  _292
REMARK  123  A    between atoms: _301  and  _303
REMARK  124  A    between atoms: _303  and  _304
REMARK  125  A    between atoms: _303  and  _306
REMARK  126  A    between atoms: _306  and  _307
REMARK  127  A    between atoms: _310  and  _312
REMARK  128  A    between atoms: _312  and  _313
REMARK  129  A    between atoms: _312  and  _315
REMARK  130  A    between atoms: _315  and  _316
REMARK  131  A    between atoms: _319  and  _321
REMARK  132  A    between atoms: _321  and  _322
REMARK  133  A    between atoms: _321  and  _324
REMARK  134  A    between atoms: _324  and  _325
REMARK  135  A    between atoms: _328  and  _330
REMARK  136  A    between atoms: _330  and  _331
REMARK  137  A    between atoms: _330  and  _333
REMARK  138  A    between atoms: _333  and  _334
REMARK  139  A    between atoms: _337  and  _339
REMARK  140  A    between atoms: _339  and  _340
REMARK  141  A    between atoms: _342  and  _344
REMARK  142  A    between atoms: _344  and  _345
REMARK  143  A    between atoms: _348  and  _350
REMARK  144  A    between atoms: _350  and  _351
REMARK  145  A    between atoms: _350  and  _353
REMARK  146  A    between atoms: _353  and  _354
REMARK  147  A    between atoms: _357  and  _359
REMARK  148  A    between atoms: _359  and  _360
REMARK  149  A    between atoms: _359  and  _362
REMARK  150  A    between atoms: _362  and  _363
REMARK  151  A    between atoms: _366  and  _368
REMARK  152  A    between atoms: _368  and  _369
REMARK  153  A    between atoms: _368  and  _371
REMARK  154  A    between atoms: _371  and  _372
REMARK  155  A    between atoms: _375  and  _377
REMARK  156  A    between atoms: _377  and  _378
REMARK  157  A    between atoms: _377  and  _380
REMARK  158  A    between atoms: _383  and  _385
REMARK  159  A    between atoms: _385  and  _386
REMARK  160  A    between atoms: _385  and  _388
REMARK  161  A    between atoms: _388  and  _389
REMARK  162  A    between atoms: _389  and  _390
REMARK  163  A    between atoms: _390  and  _391
REMARK  164  A    between atoms: _391  and  _392
REMARK  165  A    between atoms: _396  and  _398
REMARK  166  A    between atoms: _398  and  _399
REMARK  167  A    between atoms: _398  and  _401
REMARK  168  A    between atoms: _401  and  _402
REMARK  169  A    between atoms: _402  and  _403
REMARK  170  A    between atoms: _405  and  _407
REMARK  171  A    between atoms: _407  and  _408
REMARK  172  A    between atoms: _407  and  _410
REMARK  173  A    between atoms: _410  and  _411
REMARK  174  A    between atoms: _414  and  _416
REMARK  175  A    between atoms: _416  and  _417
REMARK  176  A    between atoms: _419  and  _421
REMARK  177  A    between atoms: _421  and  _422
REMARK  178  A    between atoms: _424  and  _426
REMARK  179  A    between atoms: _426  and  _427
REMARK  180  A    between atoms: _426  and  _429
REMARK  181  A    between atoms: _429  and  _430
REMARK  182  A    between atoms: _433  and  _435
REMARK  183  A    between atoms: _435  and  _436
REMARK  184  A    between atoms: _438  and  _440
REMARK  185  A    between atoms: _440  and  _441
REMARK  186  A    between atoms: _443  and  _445
REMARK  187  A    between atoms: _445  and  _446
REMARK  188  A    between atoms: _445  and  _448
REMARK  189  A    between atoms: _448  and  _449
REMARK  190  A    between atoms: _455  and  _457
REMARK  191  A    between atoms: _457  and  _458
REMARK  192  A    between atoms: _457  and  _460
REMARK  193  A    between atoms: _460  and  _461
REMARK  194  A    between atoms: _464  and  _466
REMARK  195  A    between atoms: _466  and  _467
REMARK  196  A    between atoms: _466  and  _469
REMARK  197  A    between atoms: _469  and  _470
REMARK  198  A    between atoms: _473  and  _475
REMARK  199  A    between atoms: _475  and  _476
REMARK  200  A    between atoms: _475  and  _478
REMARK  201  A    between atoms: _478  and  _479
REMARK  202  A    between atoms: _483  and  _484
REMARK  203  A    between atoms: _489  and  _491
REMARK  204  A    between atoms: _491  and  _492
REMARK  205  A    between atoms: _491  and  _494
REMARK  206  A    between atoms: _497  and  _499
REMARK  207  A    between atoms: _499  and  _500
REMARK  208  A    between atoms: _499  and  _502
REMARK  209  A    between atoms: _502  and  _503
REMARK  210  A    between atoms: _508  and  _510
REMARK  211  A    between atoms: _510  and  _511
REMARK  212  A    between atoms: _510  and  _513
REMARK  213  A    between atoms: _513  and  _514
REMARK  214  A    between atoms: _517  and  _519
REMARK  215  A    between atoms: _519  and  _520
REMARK  216  A    between atoms: _519  and  _522
REMARK  217  A    between atoms: _522  and  _523
REMARK  218  A    between atoms: _526  and  _528
REMARK  219  A    between atoms: _528  and  _529
REMARK  220  A    between atoms: _531  and  _533
REMARK  221  A    between atoms: _533  and  _534
REMARK  222  A    between atoms: _533  and  _536
REMARK  223  A    between atoms: _536  and  _537
REMARK  224  A    between atoms: _537  and  _538
REMARK  225  A    between atoms: _538  and  _539
REMARK  226  A    between atoms: _548  and  _550
REMARK  227  A    between atoms: _550  and  _551
REMARK  228  A    between atoms: _550  and  _553
REMARK  229  A    between atoms: _553  and  _554
REMARK                            x       y       z     vdW  Elec       q    Type
REMARK                         _______ _______ _______ _____ _____    ______ ____
ROOT
ATOM      1  O   HOH     1      12.174  15.714   8.332  0.00  0.00    +0.000 OA
ENDROOT
TORSDOF 0
REMARK  Name = ../refined-set-2016/2i4d/2i4d_pocket.pdb
REMARK  229 active torsions:
REMARK  status: ('A' for Active; 'I' for Inactive)
REMARK    1  A    between atoms: _1  and  _3
REMARK    2  A    between atoms: _3  and  _4
REMARK    3  A    between atoms: _3  and  _6
REMARK    4  A    between atoms: _6  and  _7
REMARK    5  A    between atoms: _7  and  _8
REMARK    6  A    between atoms: _8  and  _9
REMARK    7  A    between atoms: _18  and  _20
REMARK    8  A    between atoms: _20  and  _21
REMARK    9  A    between atoms: _20  and  _23
REMARK   10  A    between atoms: _23  and  _24
REMARK   11  A    between atoms: _27  and  _29
REMARK   12  A    between atoms: _29  and  _30
REMARK   13  A    between atoms: _29  and  _32
REMARK   14  A    between atoms: _32  and  _33
REMARK   15  A    between atoms: _36  and  _38
REMARK   16  A    between atoms: _38  and  _39
REMARK   17  A    between atoms: _38  and  _41
REMARK   18  A    between atoms: _41  and  _42
REMARK   19  A    between atoms: _45  and  _47
REMARK   20  A    between atoms: _47  and  _48
REMARK   21  A    between atoms: _47  and  _50
REMARK   22  A    between atoms: _50  and  _51
REMARK   23  A    between atoms: _54  and  _56
REMARK   24  A    between atoms: _56  and  _57
REMARK   25  A    between atoms: _59  and  _61
REMARK   26  A    between atoms: _61  and  _62
REMARK   27  A    between atoms: _65  and  _67
REMARK   28  A    between atoms: _67  and  _68
REMARK   29  A    between atoms: _67  and  _70
REMARK   30  A    between atoms: _70  and  _71
REMARK   31  A    between atoms: _74  and  _76
REMARK   32  A    between atoms: _76  and  _77
REMARK   33  A    between atoms: _76  and  _79
REMARK   34  A    between atoms: _79  and  _80
REMARK   35  A    between atoms: _83  and  _85
REMARK   36  A    between atoms: _85  and  _86
REMARK   37  A    between atoms: _85  and  _88
REMARK   38  A    between atoms: _88  and  _89
REMARK   39  A    between atoms: _92  and  _94
REMARK   40  A    between atoms: _94  and  _95
REMARK   41  A    between atoms: _94  and  _97
REMARK   42  A    between atoms: _100  and  _102
REMARK   43  A    between atoms: _102  and  _103
REMARK   44  A    between atoms: _102  and  _105
REMARK   45  A    between atoms: _105  and  _106
REMARK   46  A    between atoms: _106  and  _107
REMARK   47  A    between atoms: _107  and  _108
REMARK   48  A    between atoms: _108  and  _109
REMARK   49  A    between atoms: _113  and  _115
REMARK   50  A    between atoms: _115  and  _116
REMARK   51  A    between atoms: _115  and  _118
REMARK   52  A    between atoms: _118  and  _119
REMARK   53  A    between atoms: _119  and  _120
REMARK   54  A    between atoms: _122  and  _124
REMARK   55  A    between atoms: _124  and  _125
REMARK   56  A    between atoms: _124  and  _127
REMARK   57  A    between atoms: _127  and  _128
REMARK   58  A    between atoms: _131  and  _133
REMARK   59  A    between atoms: _133  and  _134
REMARK   60  A    between atoms: _136  and  _138
REMARK   61  A    between atoms: _138  and  _139
REMARK   62  A    between atoms: _141  and  _143
REMARK   63  A    between atoms: _143  and  _144
REMARK   64  A    between atoms: _143  and  _146
REMARK   65  A    between atoms: _146  and  _147
REMARK   66  A    between atoms: _150  and  _152
REMARK   67  A    between atoms: _152  and  _153
REMARK   68  A    between atoms: _155  and  _157
REMARK   69  A    between atoms: _157  and  _158
REMARK   70  A    between atoms: _160  and  _162
REMARK   71  A    between atoms: _162  and  _163
REMARK   72  A    between atoms: _162  and  _165
REMARK   73  A    between atoms: _165  and  _166
REMARK   74  A    between atoms: _172  and  _174
REMARK   75  A    between atoms: _174  and  _175
REMARK   76  A    between atoms: _174  and  _177
REMARK   77  A    between atoms: _177  and  _178
REMARK   78  A    between atoms: _181  and  _183
REMARK   79  A    between atoms: _183  and  _184
REMARK   80  A    between atoms: _183  and  _186
REMARK   81  A    between atoms: _189  and  _191
REMARK   82  A    between atoms: _191  and  _192
REMARK   83  A    between atoms: _191  and  _194
REMARK   84  A    between atoms: _194  and  _195
REMARK   85  A    between atoms: _198  and  _200
REMARK   86  A    between atoms: _200  and  _201
REMARK   87  A    between atoms: _200  and  _203
REMARK   88  A    between atoms: _203  and  _204
REMARK   89  A    between atoms: _208  and  _209
REMARK   90  A    between atoms: _214  and  _216
REMARK   91  A    between atoms: _216  and  _217
REMARK   92  A    between atoms: _216  and  _219
REMARK   93  A    between atoms: _222  and  _224
REMARK   94  A    between atoms: _224  and  _225
REMARK   95  A    between atoms: _224  and  _227
REMARK   96  A    between atoms: _227  and  _228
REMARK   97  A    between atoms: _233  and  _235
REMARK   98  A    between atoms: _235  and  _236
REMARK   99  A    between atoms: _235  and  _238
REMARK  100  A    between atoms: _238  and  _239
REMARK  101  A    between atoms: _242  and  _244
REMARK  102  A    between atoms: _244  and  _245
REMARK  103  A    between atoms: _244  and  _247
REMARK  104  A    between atoms: _247  and  _248
REMARK  105  A    between atoms: _251  and  _253
REMARK  106  A    between atoms: _253  and  _254
REMARK  107  A    between atoms: _256  and  _258
REMARK  108  A    between atoms: _258  and  _259
REMARK  109  A    between atoms: _258  and  _261
REMARK  110  A    between atoms: _261  and  _262
REMARK  111  A    between atoms: _262  and  _263
REMARK  112  A    between atoms: _263  and  _264
REMARK  113  A    between atoms: _273  and  _275
REMARK  114  A    between atoms: _275  and  _276
REMARK  115  A    between atoms: _275  and  _278
REMARK  116  A    between atoms: _278  and  _279
REMARK  117  A    between atoms: _284  and  _286
REMARK  118  A    between atoms: _286  and  _287
REMARK  119  A    between atoms: _286  and  _289
REMARK  120  A    between atoms: _289  and  _290
REMARK  121  A    between atoms: _290  and  _291
REMARK  122  A    between atoms: _291  and  _292
REMARK  123  A    between atoms: _301  and  _303
REMARK  124  A    between atoms: _303  and  _304
REMARK  125  A    between atoms: _303  and  _306
REMARK  126  A    between atoms: _306  and  _307
REMARK  127  A    between atoms: _310  and  _312
REMARK  128  A    between atoms: _312  and  _313
REMARK  129  A    between atoms: _312  and  _315
REMARK  130  A    between atoms: _315  and  _316
REMARK  131  A    between atoms: _319  and  _321
REMARK  132  A    between atoms: _321  and  _322
REMARK  133  A    between atoms: _321  and  _324
REMARK  134  A    between atoms: _324  and  _325
REMARK  135  A    between atoms: _328  and  _330
REMARK  136  A    between atoms: _330  and  _331
REMARK  137  A    between atoms: _330  and  _333
REMARK  138  A    between atoms: _333  and  _334
REMARK  139  A    between atoms: _337  and  _339
REMARK  140  A    between atoms: _339  and  _340
REMARK  141  A    between atoms: _342  and  _344
REMARK  142  A    between atoms: _344  and  _345
REMARK  143  A    between atoms: _348  and  _350
REMARK  144  A    between atoms: _350  and  _351
REMARK  145  A    between atoms: _350  and  _353
REMARK  146  A    between atoms: _353  and  _354
REMARK  147  A    between atoms: _357  and  _359
REMARK  148  A    between atoms: _359  and  _360
REMARK  149  A    between atoms: _359  and  _362
REMARK  150  A    between atoms: _362  and  _363
REMARK  151  A    between atoms: _366  and  _368
REMARK  152  A    between atoms: _368  and  _369
REMARK  153  A    between atoms: _368  and  _371
REMARK  154  A    between atoms: _371  and  _372
REMARK  155  A    between atoms: _375  and  _377
REMARK  156  A    between atoms: _377  and  _378
REMARK  157  A    between atoms: _377  and  _380
REMARK  158  A    between atoms: _383  and  _385
REMARK  159  A    between atoms: _385  and  _386
REMARK  160  A    between atoms: _385  and  _388
REMARK  161  A    between atoms: _388  and  _389
REMARK  162  A    between atoms: _389  and  _390
REMARK  163  A    between atoms: _390  and  _391
REMARK  164  A    between atoms: _391  and  _392
REMARK  165  A    between atoms: _396  and  _398
REMARK  166  A    between atoms: _398  and  _399
REMARK  167  A    between atoms: _398  and  _401
REMARK  168  A    between atoms: _401  and  _402
REMARK  169  A    between atoms: _402  and  _403
REMARK  170  A    between atoms: _405  and  _407
REMARK  171  A    between atoms: _407  and  _408
REMARK  172  A    between atoms: _407  and  _410
REMARK  173  A    between atoms: _410  and  _411
REMARK  174  A    between atoms: _414  and  _416
REMARK  175  A    between atoms: _416  and  _417
REMARK  176  A    between atoms: _419  and  _421
REMARK  177  A    between atoms: _421  and  _422
REMARK  178  A    between atoms: _424  and  _426
REMARK  179  A    between atoms: _426  and  _427
REMARK  180  A    between atoms: _426  and  _429
REMARK  181  A    between atoms: _429  and  _430
REMARK  182  A    between atoms: _433  and  _435
REMARK  183  A    between atoms: _435  and  _436
REMARK  184  A    between atoms: _438  and  _440
REMARK  185  A    between atoms: _440  and  _441
REMARK  186  A    between atoms: _443  and  _445
REMARK  187  A    between atoms: _445  and  _446
REMARK  188  A    between atoms: _445  and  _448
REMARK  189  A    between atoms: _448  and  _449
REMARK  190  A    between atoms: _455  and  _457
REMARK  191  A    between atoms: _457  and  _458
REMARK  192  A    between atoms: _457  and  _460
REMARK  193  A    between atoms: _460  and  _461
REMARK  194  A    between atoms: _464  and  _466
REMARK  195  A    between atoms: _466  and  _467
REMARK  196  A    between atoms: _466  and  _469
REMARK  197  A    between atoms: _469  and  _470
REMARK  198  A    between atoms: _473  and  _475
REMARK  199  A    between atoms: _475  and  _476
REMARK  200  A    between atoms: _475  and  _478
REMARK  201  A    between atoms: _478  and  _479
REMARK  202  A    between atoms: _483  and  _484
REMARK  203  A    between atoms: _489  and  _491
REMARK  204  A    between atoms: _491  and  _492
REMARK  205  A    between atoms: _491  and  _494
REMARK  206  A    between atoms: _497  and  _499
REMARK  207  A    between atoms: _499  and  _500
REMARK  208  A    between atoms: _499  and  _502
REMARK  209  A    between atoms: _502  and  _503
REMARK  210  A    between atoms: _508  and  _510
REMARK  211  A    between atoms: _510  and  _511
REMARK  212  A    between atoms: _510  and  _513
REMARK  213  A    between atoms: _513  and  _514
REMARK  214  A    between atoms: _517  and  _519
REMARK  215  A    between atoms: _519  and  _520
REMARK  216  A    between atoms: _519  and  _522
REMARK  217  A    between atoms: _522  and  _523
REMARK  218  A    between atoms: _526  and  _528
REMARK  219  A    between atoms: _528  and  _529
REMARK  220  A    between atoms: _531  and  _533
REMARK  221  A    between atoms: _533  and  _534
REMARK  222  A    between atoms: _533  and  _536
REMARK  223  A    between atoms: _536  and  _537
REMARK  224  A    between atoms: _537  and  _538
REMARK  225  A    between atoms: _538  and  _539
REMARK  226  A    between atoms: _548  and  _550
REMARK  227  A    between atoms: _550  and  _551
REMARK  228  A    between atoms: _550  and  _553
REMARK  229  A    between atoms: _553  and  _554
REMARK                            x       y       z     vdW  Elec       q    Type
REMARK                         _______ _______ _______ _____ _____    ______ ____
ROOT
ATOM      1  O   HOH     1       6.981  21.062   9.452  0.00  0.00    +0.000 OA
ENDROOT
TORSDOF 0
REMARK  Name = ../refined-set-2016/2i4d/2i4d_pocket.pdb
REMARK  229 active torsions:
REMARK  status: ('A' for Active; 'I' for Inactive)
REMARK    1  A    between atoms: _1  and  _3
REMARK    2  A    between atoms: _3  and  _4
REMARK    3  A    between atoms: _3  and  _6
REMARK    4  A    between atoms: _6  and  _7
REMARK    5  A    between atoms: _7  and  _8
REMARK    6  A    between atoms: _8  and  _9
REMARK    7  A    between atoms: _18  and  _20
REMARK    8  A    between atoms: _20  and  _21
REMARK    9  A    between atoms: _20  and  _23
REMARK   10  A    between atoms: _23  and  _24
REMARK   11  A    between atoms: _27  and  _29
REMARK   12  A    between atoms: _29  and  _30
REMARK   13  A    between atoms: _29  and  _32
REMARK   14  A    between atoms: _32  and  _33
REMARK   15  A    between atoms: _36  and  _38
REMARK   16  A    between atoms: _38  and  _39
REMARK   17  A    between atoms: _38  and  _41
REMARK   18  A    between atoms: _41  and  _42
REMARK   19  A    between atoms: _45  and  _47
REMARK   20  A    between atoms: _47  and  _48
REMARK   21  A    between atoms: _47  and  _50
REMARK   22  A    between atoms: _50  and  _51
REMARK   23  A    between atoms: _54  and  _56
REMARK   24  A    between atoms: _56  and  _57
REMARK   25  A    between atoms: _59  and  _61
REMARK   26  A    between atoms: _61  and  _62
REMARK   27  A    between atoms: _65  and  _67
REMARK   28  A    between atoms: _67  and  _68
REMARK   29  A    between atoms: _67  and  _70
REMARK   30  A    between atoms: _70  and  _71
REMARK   31  A    between atoms: _74  and  _76
REMARK   32  A    between atoms: _76  and  _77
REMARK   33  A    between atoms: _76  and  _79
REMARK   34  A    between atoms: _79  and  _80
REMARK   35  A    between atoms: _83  and  _85
REMARK   36  A    between atoms: _85  and  _86
REMARK   37  A    between atoms: _85  and  _88
REMARK   38  A    between atoms: _88  and  _89
REMARK   39  A    between atoms: _92  and  _94
REMARK   40  A    between atoms: _94  and  _95
REMARK   41  A    between atoms: _94  and  _97
REMARK   42  A    between atoms: _100  and  _102
REMARK   43  A    between atoms: _102  and  _103
REMARK   44  A    between atoms: _102  and  _105
REMARK   45  A    between atoms: _105  and  _106
REMARK   46  A    between atoms: _106  and  _107
REMARK   47  A    between atoms: _107  and  _108
REMARK   48  A    between atoms: _108  and  _109
REMARK   49  A    between atoms: _113  and  _115
REMARK   50  A    between atoms: _115  and  _116
REMARK   51  A    between atoms: _115  and  _118
REMARK   52  A    between atoms: _118  and  _119
REMARK   53  A    between atoms: _119  and  _120
REMARK   54  A    between atoms: _122  and  _124
REMARK   55  A    between atoms: _124  and  _125
REMARK   56  A    between atoms: _124  and  _127
REMARK   57  A    between atoms: _127  and  _128
REMARK   58  A    between atoms: _131  and  _133
REMARK   59  A    between atoms: _133  and  _134
REMARK   60  A    between atoms: _136  and  _138
REMARK   61  A    between atoms: _138  and  _139
REMARK   62  A    between atoms: _141  and  _143
REMARK   63  A    between atoms: _143  and  _144
REMARK   64  A    between atoms: _143  and  _146
REMARK   65  A    between atoms: _146  and  _147
REMARK   66  A    between atoms: _150  and  _152
REMARK   67  A    between atoms: _152  and  _153
REMARK   68  A    between atoms: _155  and  _157
REMARK   69  A    between atoms: _157  and  _158
REMARK   70  A    between atoms: _160  and  _162
REMARK   71  A    between atoms: _162  and  _163
REMARK   72  A    between atoms: _162  and  _165
REMARK   73  A    between atoms: _165  and  _166
REMARK   74  A    between atoms: _172  and  _174
REMARK   75  A    between atoms: _174  and  _175
REMARK   76  A    between atoms: _174  and  _177
REMARK   77  A    between atoms: _177  and  _178
REMARK   78  A    between atoms: _181  and  _183
REMARK   79  A    between atoms: _183  and  _184
REMARK   80  A    between atoms: _183  and  _186
REMARK   81  A    between atoms: _189  and  _191
REMARK   82  A    between atoms: _191  and  _192
REMARK   83  A    between atoms: _191  and  _194
REMARK   84  A    between atoms: _194  and  _195
REMARK   85  A    between atoms: _198  and  _200
REMARK   86  A    between atoms: _200  and  _201
REMARK   87  A    between atoms: _200  and  _203
REMARK   88  A    between atoms: _203  and  _204
REMARK   89  A    between atoms: _208  and  _209
REMARK   90  A    between atoms: _214  and  _216
REMARK   91  A    between atoms: _216  and  _217
REMARK   92  A    between atoms: _216  and  _219
REMARK   93  A    between atoms: _222  and  _224
REMARK   94  A    between atoms: _224  and  _225
REMARK   95  A    between atoms: _224  and  _227
REMARK   96  A    between atoms: _227  and  _228
REMARK   97  A    between atoms: _233  and  _235
REMARK   98  A    between atoms: _235  and  _236
REMARK   99  A    between atoms: _235  and  _238
REMARK  100  A    between atoms: _238  and  _239
REMARK  101  A    between atoms: _242  and  _244
REMARK  102  A    between atoms: _244  and  _245
REMARK  103  A    between atoms: _244  and  _247
REMARK  104  A    between atoms: _247  and  _248
REMARK  105  A    between atoms: _251  and  _253
REMARK  106  A    between atoms: _253  and  _254
REMARK  107  A    between atoms: _256  and  _258
REMARK  108  A    between atoms: _258  and  _259
REMARK  109  A    between atoms: _258  and  _261
REMARK  110  A    between atoms: _261  and  _262
REMARK  111  A    between atoms: _262  and  _263
REMARK  112  A    between atoms: _263  and  _264
REMARK  113  A    between atoms: _273  and  _275
REMARK  114  A    between atoms: _275  and  _276
REMARK  115  A    between atoms: _275  and  _278
REMARK  116  A    between atoms: _278  and  _279
REMARK  117  A    between atoms: _284  and  _286
REMARK  118  A    between atoms: _286  and  _287
REMARK  119  A    between atoms: _286  and  _289
REMARK  120  A    between atoms: _289  and  _290
REMARK  121  A    between atoms: _290  and  _291
REMARK  122  A    between atoms: _291  and  _292
REMARK  123  A    between atoms: _301  and  _303
REMARK  124  A    between atoms: _303  and  _304
REMARK  125  A    between atoms: _303  and  _306
REMARK  126  A    between atoms: _306  and  _307
REMARK  127  A    between atoms: _310  and  _312
REMARK  128  A    between atoms: _312  and  _313
REMARK  129  A    between atoms: _312  and  _315
REMARK  130  A    between atoms: _315  and  _316
REMARK  131  A    between atoms: _319  and  _321
REMARK  132  A    between atoms: _321  and  _322
REMARK  133  A    between atoms: _321  and  _324
REMARK  134  A    between atoms: _324  and  _325
REMARK  135  A    between atoms: _328  and  _330
REMARK  136  A    between atoms: _330  and  _331
REMARK  137  A    between atoms: _330  and  _333
REMARK  138  A    between atoms: _333  and  _334
REMARK  139  A    between atoms: _337  and  _339
REMARK  140  A    between atoms: _339  and  _340
REMARK  141  A    between atoms: _342  and  _344
REMARK  142  A    between atoms: _344  and  _345
REMARK  143  A    between atoms: _348  and  _350
REMARK  144  A    between atoms: _350  and  _351
REMARK  145  A    between atoms: _350  and  _353
REMARK  146  A    between atoms: _353  and  _354
REMARK  147  A    between atoms: _357  and  _359
REMARK  148  A    between atoms: _359  and  _360
REMARK  149  A    between atoms: _359  and  _362
REMARK  150  A    between atoms: _362  and  _363
REMARK  151  A    between atoms: _366  and  _368
REMARK  152  A    between atoms: _368  and  _369
REMARK  153  A    between atoms: _368  and  _371
REMARK  154  A    between atoms: _371  and  _372
REMARK  155  A    between atoms: _375  and  _377
REMARK  156  A    between atoms: _377  and  _378
REMARK  157  A    between atoms: _377  and  _380
REMARK  158  A    between atoms: _383  and  _385
REMARK  159  A    between atoms: _385  and  _386
REMARK  160  A    between atoms: _385  and  _388
REMARK  161  A    between atoms: _388  and  _389
REMARK  162  A    between atoms: _389  and  _390
REMARK  163  A    between atoms: _390  and  _391
REMARK  164  A    between atoms: _391  and  _392
REMARK  165  A    between atoms: _396  and  _398
REMARK  166  A    between atoms: _398  and  _399
REMARK  167  A    between atoms: _398  and  _401
REMARK  168  A    between atoms: _401  and  _402
REMARK  169  A    between atoms: _402  and  _403
REMARK  170  A    between atoms: _405  and  _407
REMARK  171  A    between atoms: _407  and  _408
REMARK  172  A    between atoms: _407  and  _410
REMARK  173  A    between atoms: _410  and  _411
REMARK  174  A    between atoms: _414  and  _416
REMARK  175  A    between atoms: _416  and  _417
REMARK  176  A    between atoms: _419  and  _421
REMARK  177  A    between atoms: _421  and  _422
REMARK  178  A    between atoms: _424  and  _426
REMARK  179  A    between atoms: _426  and  _427
REMARK  180  A    between atoms: _426  and  _429
REMARK  181  A    between atoms: _429  and  _430
REMARK  182  A    between atoms: _433  and  _435
REMARK  183  A    between atoms: _435  and  _436
REMARK  184  A    between atoms: _438  and  _440
REMARK  185  A    between atoms: _440  and  _441
REMARK  186  A    between atoms: _443  and  _445
REMARK  187  A    between atoms: _445  and  _446
REMARK  188  A    between atoms: _445  and  _448
REMARK  189  A    between atoms: _448  and  _449
REMARK  190  A    between atoms: _455  and  _457
REMARK  191  A    between atoms: _457  and  _458
REMARK  192  A    between atoms: _457  and  _460
REMARK  193  A    between atoms: _460  and  _461
REMARK  194  A    between atoms: _464  and  _466
REMARK  195  A    between atoms: _466  and  _467
REMARK  196  A    between atoms: _466  and  _469
REMARK  197  A    between atoms: _469  and  _470
REMARK  198  A    between atoms: _473  and  _475
REMARK  199  A    between atoms: _475  and  _476
REMARK  200  A    between atoms: _475  and  _478
REMARK  201  A    between atoms: _478  and  _479
REMARK  202  A    between atoms: _483  and  _484
REMARK  203  A    between atoms: _489  and  _491
REMARK  204  A    between atoms: _491  and  _492
REMARK  205  A    between atoms: _491  and  _494
REMARK  206  A    between atoms: _497  and  _499
REMARK  207  A    between atoms: _499  and  _500
REMARK  208  A    between atoms: _499  and  _502
REMARK  209  A    between atoms: _502  and  _503
REMARK  210  A    between atoms: _508  and  _510
REMARK  211  A    between atoms: _510  and  _511
REMARK  212  A    between atoms: _510  and  _513
REMARK  213  A    between atoms: _513  and  _514
REMARK  214  A    between atoms: _517  and  _519
REMARK  215  A    between atoms: _519  and  _520
REMARK  216  A    between atoms: _519  and  _522
REMARK  217  A    between atoms: _522  and  _523
REMARK  218  A    between atoms: _526  and  _528
REMARK  219  A    between atoms: _528  and  _529
REMARK  220  A    between atoms: _531  and  _533
REMARK  221  A    between atoms: _533  and  _534
REMARK  222  A    between atoms: _533  and  _536
REMARK  223  A    between atoms: _536  and  _537
REMARK  224  A    between atoms: _537  and  _538
REMARK  225  A    between atoms: _538  and  _539
REMARK  226  A    between atoms: _548  and  _550
REMARK  227  A    between atoms: _550  and  _551
REMARK  228  A    between atoms: _550  and  _553
REMARK  229  A    between atoms: _553  and  _554
REMARK                            x       y       z     vdW  Elec       q    Type
REMARK                         _______ _______ _______ _____ _____    ______ ____
ROOT
ATOM      1  O   HOH     1       6.149  15.969  18.571  0.00  0.00    +0.000 OA
ENDROOT
TORSDOF 0
