REMARK  Name = ../refined-set-2016/4ufk/4ufk_pocket.pdb
REMARK  128 active torsions:
REMARK  status: ('A' for Active; 'I' for Inactive)
REMARK    1  A    between atoms: _1  and  _3
REMARK    2  A    between atoms: _3  and  _4
REMARK    3  A    between atoms: _3  and  _6
REMARK    4  A    between atoms: _9  and  _11
REMARK    5  A    between atoms: _11  and  _12
REMARK    6  A    between atoms: _14  and  _16
REMARK    7  A    between atoms: _16  and  _17
REMARK    8  A    between atoms: _19  and  _21
REMARK    9  A    between atoms: _21  and  _22
REMARK   10  A    between atoms: _24  and  _26
REMARK   11  A    between atoms: _26  and  _27
REMARK   12  A    between atoms: _30  and  _32
REMARK   13  A    between atoms: _32  and  _33
REMARK   14  A    between atoms: _32  and  _35
REMARK   15  A    between atoms: _35  and  _36
REMARK   16  A    between atoms: _39  and  _41
REMARK   17  A    between atoms: _41  and  _42
REMARK   18  A    between atoms: _41  and  _44
REMARK   19  A    between atoms: _44  and  _45
REMARK   20  A    between atoms: _45  and  _46
REMARK   21  A    between atoms: _46  and  _47
REMARK   22  A    between atoms: _47  and  _48
REMARK   23  A    between atoms: _52  and  _54
REMARK   24  A    between atoms: _54  and  _55
REMARK   25  A    between atoms: _54  and  _57
REMARK   26  A    between atoms: _57  and  _58
REMARK   27  A    between atoms: _58  and  _59
REMARK   28  A    between atoms: _62  and  _64
REMARK   29  A    between atoms: _64  and  _65
REMARK   30  A    between atoms: _64  and  _67
REMARK   31  A    between atoms: _67  and  _68
REMARK   32  A    between atoms: _71  and  _73
REMARK   33  A    between atoms: _73  and  _74
REMARK   34  A    between atoms: _73  and  _76
REMARK   35  A    between atoms: _76  and  _77
REMARK   36  A    between atoms: _80  and  _82
REMARK   37  A    between atoms: _82  and  _83
REMARK   38  A    between atoms: _82  and  _85
REMARK   39  A    between atoms: _85  and  _86
REMARK   40  A    between atoms: _89  and  _91
REMARK   41  A    between atoms: _91  and  _92
REMARK   42  A    between atoms: _91  and  _94
REMARK   43  A    between atoms: _94  and  _95
REMARK   44  A    between atoms: _105  and  _107
REMARK   45  A    between atoms: _107  and  _108
REMARK   46  A    between atoms: _107  and  _110
REMARK   47  A    between atoms: _110  and  _111
REMARK   48  A    between atoms: _116  and  _118
REMARK   49  A    between atoms: _118  and  _119
REMARK   50  A    between atoms: _118  and  _121
REMARK   51  A    between atoms: _121  and  _122
REMARK   52  A    between atoms: _122  and  _123
REMARK   53  A    between atoms: _126  and  _128
REMARK   54  A    between atoms: _128  and  _129
REMARK   55  A    between atoms: _128  and  _131
REMARK   56  A    between atoms: _131  and  _132
REMARK   57  A    between atoms: _132  and  _133
REMARK   58  A    between atoms: _133  and  _134
REMARK   59  A    between atoms: _143  and  _145
REMARK   60  A    between atoms: _145  and  _146
REMARK   61  A    between atoms: _145  and  _148
REMARK   62  A    between atoms: _148  and  _149
REMARK   63  A    between atoms: _152  and  _154
REMARK   64  A    between atoms: _154  and  _155
REMARK   65  A    between atoms: _154  and  _157
REMARK   66  A    between atoms: _157  and  _158
REMARK   67  A    between atoms: _163  and  _165
REMARK   68  A    between atoms: _165  and  _166
REMARK   69  A    between atoms: _165  and  _168
REMARK   70  A    between atoms: _168  and  _169
REMARK   71  A    between atoms: _174  and  _175
REMARK   72  A    between atoms: _177  and  _179
REMARK   73  A    between atoms: _179  and  _180
REMARK   74  A    between atoms: _179  and  _182
REMARK   75  A    between atoms: _182  and  _183
REMARK   76  A    between atoms: _183  and  _184
REMARK   77  A    between atoms: _187  and  _189
REMARK   78  A    between atoms: _189  and  _190
REMARK   79  A    between atoms: _189  and  _192
REMARK   80  A    between atoms: _192  and  _193
REMARK   81  A    between atoms: _196  and  _198
REMARK   82  A    between atoms: _198  and  _199
REMARK   83  A    between atoms: _198  and  _201
REMARK   84  A    between atoms: _201  and  _202
REMARK   85  A    between atoms: _208  and  _210
REMARK   86  A    between atoms: _210  and  _211
REMARK   87  A    between atoms: _210  and  _213
REMARK   88  A    between atoms: _213  and  _214
REMARK   89  A    between atoms: _216  and  _218
REMARK   90  A    between atoms: _218  and  _219
REMARK   91  A    between atoms: _218  and  _221
REMARK   92  A    between atoms: _221  and  _222
REMARK   93  A    between atoms: _225  and  _227
REMARK   94  A    between atoms: _227  and  _228
REMARK   95  A    between atoms: _227  and  _230
REMARK   96  A    between atoms: _230  and  _231
REMARK   97  A    between atoms: _241  and  _243
REMARK   98  A    between atoms: _243  and  _244
REMARK   99  A    between atoms: _243  and  _246
REMARK  100  A    between atoms: _246  and  _247
REMARK  101  A    between atoms: _253  and  _254
REMARK  102  A    between atoms: _259  and  _261
REMARK  103  A    between atoms: _261  and  _262
REMARK  104  A    between atoms: _261  and  _264
REMARK  105  A    between atoms: _264  and  _265
REMARK  106  A    between atoms: _270  and  _271
REMARK  107  A    between atoms: _273  and  _275
REMARK  108  A    between atoms: _275  and  _276
REMARK  109  A    between atoms: _275  and  _278
REMARK  110  A    between atoms: _278  and  _279
REMARK  111  A    between atoms: _281  and  _283
REMARK  112  A    between atoms: _283  and  _284
REMARK  113  A    between atoms: _283  and  _286
REMARK  114  A    between atoms: _286  and  _287
REMARK  115  A    between atoms: _290  and  _292
REMARK  116  A    between atoms: _292  and  _293
REMARK  117  A    between atoms: _292  and  _295
REMARK  118  A    between atoms: _295  and  _296
REMARK  119  A    between atoms: _296  and  _297
REMARK  120  A    between atoms: _297  and  _298
REMARK  121  A    between atoms: _307  and  _309
REMARK  122  A    between atoms: _309  and  _310
REMARK  123  A    between atoms: _309  and  _312
REMARK  124  A    between atoms: _312  and  _313
REMARK  125  A    between atoms: _323  and  _325
REMARK  126  A    between atoms: _325  and  _326
REMARK  127  A    between atoms: _325  and  _328
REMARK  128  A    between atoms: _328  and  _329
REMARK                            x       y       z     vdW  Elec       q    Type
REMARK                         _______ _______ _______ _____ _____    ______ ____
ROOT
ATOM      1  CA  VAL A   1      79.223  98.259  22.157  0.00  0.00    +0.133 C 
ENDROOT
BRANCH   1   2
ATOM      2  CB  VAL A   1      78.628  96.965  21.543  0.00  0.00    +0.023 C 
ATOM      3  CG2 VAL A   1      77.677  96.316  22.524  0.00  0.00    +0.002 C 
ATOM      4  CG1 VAL A   1      77.936  97.245  20.222  0.00  0.00    +0.002 C 
ENDBRANCH   1   2
BRANCH   1   5
ATOM      5  N   VAL A   1      80.109  98.947  21.225  0.00  0.00    -0.239 NA
ATOM      6  H   VAL A   1      80.797  98.391  20.678  0.00  0.00    +0.142 HD
ENDBRANCH   1   5
BRANCH   1   7
ATOM      7  C   VAL A   1      79.927  97.870  23.450  0.00  0.00    +0.224 C 
ATOM      8  O   VAL A   1      80.978  97.246  23.420  0.00  0.00    -0.287 OA
ENDBRANCH   1   7
TORSDOF 3
REMARK  Name = ../refined-set-2016/4ufk/4ufk_pocket.pdb
REMARK  128 active torsions:
REMARK  status: ('A' for Active; 'I' for Inactive)
REMARK    1  A    between atoms: _1  and  _3
REMARK    2  A    between atoms: _3  and  _4
REMARK    3  A    between atoms: _3  and  _6
REMARK    4  A    between atoms: _9  and  _11
REMARK    5  A    between atoms: _11  and  _12
REMARK    6  A    between atoms: _14  and  _16
REMARK    7  A    between atoms: _16  and  _17
REMARK    8  A    between atoms: _19  and  _21
REMARK    9  A    between atoms: _21  and  _22
REMARK   10  A    between atoms: _24  and  _26
REMARK   11  A    between atoms: _26  and  _27
REMARK   12  A    between atoms: _30  and  _32
REMARK   13  A    between atoms: _32  and  _33
REMARK   14  A    between atoms: _32  and  _35
REMARK   15  A    between atoms: _35  and  _36
REMARK   16  A    between atoms: _39  and  _41
REMARK   17  A    between atoms: _41  and  _42
REMARK   18  A    between atoms: _41  and  _44
REMARK   19  A    between atoms: _44  and  _45
REMARK   20  A    between atoms: _45  and  _46
REMARK   21  A    between atoms: _46  and  _47
REMARK   22  A    between atoms: _47  and  _48
REMARK   23  A    between atoms: _52  and  _54
REMARK   24  A    between atoms: _54  and  _55
REMARK   25  A    between atoms: _54  and  _57
REMARK   26  A    between atoms: _57  and  _58
REMARK   27  A    between atoms: _58  and  _59
REMARK   28  A    between atoms: _62  and  _64
REMARK   29  A    between atoms: _64  and  _65
REMARK   30  A    between atoms: _64  and  _67
REMARK   31  A    between atoms: _67  and  _68
REMARK   32  A    between atoms: _71  and  _73
REMARK   33  A    between atoms: _73  and  _74
REMARK   34  A    between atoms: _73  and  _76
REMARK   35  A    between atoms: _76  and  _77
REMARK   36  A    between atoms: _80  and  _82
REMARK   37  A    between atoms: _82  and  _83
REMARK   38  A    between atoms: _82  and  _85
REMARK   39  A    between atoms: _85  and  _86
REMARK   40  A    between atoms: _89  and  _91
REMARK   41  A    between atoms: _91  and  _92
REMARK   42  A    between atoms: _91  and  _94
REMARK   43  A    between atoms: _94  and  _95
REMARK   44  A    between atoms: _105  and  _107
REMARK   45  A    between atoms: _107  and  _108
REMARK   46  A    between atoms: _107  and  _110
REMARK   47  A    between atoms: _110  and  _111
REMARK   48  A    between atoms: _116  and  _118
REMARK   49  A    between atoms: _118  and  _119
REMARK   50  A    between atoms: _118  and  _121
REMARK   51  A    between atoms: _121  and  _122
REMARK   52  A    between atoms: _122  and  _123
REMARK   53  A    between atoms: _126  and  _128
REMARK   54  A    between atoms: _128  and  _129
REMARK   55  A    between atoms: _128  and  _131
REMARK   56  A    between atoms: _131  and  _132
REMARK   57  A    between atoms: _132  and  _133
REMARK   58  A    between atoms: _133  and  _134
REMARK   59  A    between atoms: _143  and  _145
REMARK   60  A    between atoms: _145  and  _146
REMARK   61  A    between atoms: _145  and  _148
REMARK   62  A    between atoms: _148  and  _149
REMARK   63  A    between atoms: _152  and  _154
REMARK   64  A    between atoms: _154  and  _155
REMARK   65  A    between atoms: _154  and  _157
REMARK   66  A    between atoms: _157  and  _158
REMARK   67  A    between atoms: _163  and  _165
REMARK   68  A    between atoms: _165  and  _166
REMARK   69  A    between atoms: _165  and  _168
REMARK   70  A    between atoms: _168  and  _169
REMARK   71  A    between atoms: _174  and  _175
REMARK   72  A    between atoms: _177  and  _179
REMARK   73  A    between atoms: _179  and  _180
REMARK   74  A    between atoms: _179  and  _182
REMARK   75  A    between atoms: _182  and  _183
REMARK   76  A    between atoms: _183  and  _184
REMARK   77  A    between atoms: _187  and  _189
REMARK   78  A    between atoms: _189  and  _190
REMARK   79  A    between atoms: _189  and  _192
REMARK   80  A    between atoms: _192  and  _193
REMARK   81  A    between atoms: _196  and  _198
REMARK   82  A    between atoms: _198  and  _199
REMARK   83  A    between atoms: _198  and  _201
REMARK   84  A    between atoms: _201  and  _202
REMARK   85  A    between atoms: _208  and  _210
REMARK   86  A    between atoms: _210  and  _211
REMARK   87  A    between atoms: _210  and  _213
REMARK   88  A    between atoms: _213  and  _214
REMARK   89  A    between atoms: _216  and  _218
REMARK   90  A    between atoms: _218  and  _219
REMARK   91  A    between atoms: _218  and  _221
REMARK   92  A    between atoms: _221  and  _222
REMARK   93  A    between atoms: _225  and  _227
REMARK   94  A    between atoms: _227  and  _228
REMARK   95  A    between atoms: _227  and  _230
REMARK   96  A    between atoms: _230  and  _231
REMARK   97  A    between atoms: _241  and  _243
REMARK   98  A    between atoms: _243  and  _244
REMARK   99  A    between atoms: _243  and  _246
REMARK  100  A    between atoms: _246  and  _247
REMARK  101  A    between atoms: _253  and  _254
REMARK  102  A    between atoms: _259  and  _261
REMARK  103  A    between atoms: _261  and  _262
REMARK  104  A    between atoms: _261  and  _264
REMARK  105  A    between atoms: _264  and  _265
REMARK  106  A    between atoms: _270  and  _271
REMARK  107  A    between atoms: _273  and  _275
REMARK  108  A    between atoms: _275  and  _276
REMARK  109  A    between atoms: _275  and  _278
REMARK  110  A    between atoms: _278  and  _279
REMARK  111  A    between atoms: _281  and  _283
REMARK  112  A    between atoms: _283  and  _284
REMARK  113  A    between atoms: _283  and  _286
REMARK  114  A    between atoms: _286  and  _287
REMARK  115  A    between atoms: _290  and  _292
REMARK  116  A    between atoms: _292  and  _293
REMARK  117  A    between atoms: _292  and  _295
REMARK  118  A    between atoms: _295  and  _296
REMARK  119  A    between atoms: _296  and  _297
REMARK  120  A    between atoms: _297  and  _298
REMARK  121  A    between atoms: _307  and  _309
REMARK  122  A    between atoms: _309  and  _310
REMARK  123  A    between atoms: _309  and  _312
REMARK  124  A    between atoms: _312  and  _313
REMARK  125  A    between atoms: _323  and  _325
REMARK  126  A    between atoms: _325  and  _326
REMARK  127  A    between atoms: _325  and  _328
REMARK  128  A    between atoms: _328  and  _329
REMARK                            x       y       z     vdW  Elec       q    Type
REMARK                         _______ _______ _______ _____ _____    ______ ____
ROOT
ATOM      1  C   GLY A   3      79.552  90.261  28.386  0.00  0.00    +0.243 C 
ATOM      2  N   ALA A   4      79.497  91.224  29.304  0.00  0.00    -0.297 N 
ATOM      3  H   ALA A   4      78.680  91.867  29.297  0.00  0.00    +0.150 HD
ATOM      4  O   GLY A   3      80.494  89.479  28.277  0.00  0.00    -0.273 OA
ENDROOT
BRANCH   2   5
ATOM      5  CA  ALA A   4      80.531  91.423  30.323  0.00  0.00    +0.149 C 
ATOM      6  CB  ALA A   4      80.663  90.181  31.198  0.00  0.00    +0.031 C 
BRANCH   5   7
ATOM      7  C   ALA A   4      81.876  91.783  29.690  0.00  0.00    +0.241 C 
ATOM      8  O   ALA A   4      82.933  91.390  30.174  0.00  0.00    -0.273 OA
ATOM      9  N   THR A   5      81.823  92.526  28.594  0.00  0.00    -0.296 N 
ATOM     10  H   THR A   5      80.902  92.847  28.235  0.00  0.00    +0.150 HD
BRANCH   9  11
ATOM     11  CA  THR A   5      83.033  92.895  27.892  0.00  0.00    +0.164 C 
BRANCH  11  12
ATOM     12  C   THR A   5      83.808  93.969  28.648  0.00  0.00    +0.229 C 
ATOM     13  O   THR A   5      85.020  94.101  28.480  0.00  0.00    -0.286 OA
ENDBRANCH  11  12
BRANCH  11  14
ATOM     14  CB  THR A   5      82.727  93.392  26.460  0.00  0.00    +0.136 C 
ATOM     15  CG2 THR A   5      82.117  92.276  25.632  0.00  0.00    +0.034 C 
BRANCH  14  16
ATOM     16  OG1 THR A   5      81.821  94.498  26.509  0.00  0.00    -0.382 OA
ATOM     17  HG1 THR A   5      82.229  95.235  27.030  0.00  0.00    +0.210 HD
ENDBRANCH  14  16
ENDBRANCH  11  14
ENDBRANCH   9  11
ENDBRANCH   5   7
ENDBRANCH   2   5
BRANCH   1  18
ATOM     18  CA  GLY A   3      78.384  90.183  27.418  0.00  0.00    +0.176 C 
BRANCH  18  20
ATOM     19  C   GLY A   2      78.239  90.405  24.971  0.00  0.00    +0.243 C 
ATOM     20  N   GLY A   3      78.886  90.022  26.068  0.00  0.00    -0.295 N 
ATOM     21  H   GLY A   3      79.818  89.576  25.949  0.00  0.00    +0.150 HD
ATOM     22  O   GLY A   2      78.688  90.202  23.850  0.00  0.00    -0.273 OA
BRANCH  19  23
ATOM     23  CA  GLY A   2      76.896  91.097  25.130  0.00  0.00    +0.176 C 
BRANCH  23  25
ATOM     24  C   GLY A   1      77.842  93.282  25.633  0.00  0.00    +0.240 C 
ATOM     25  N   GLY A   2      76.966  92.322  25.905  0.00  0.00    -0.295 N 
ATOM     26  H   GLY A   2      76.308  92.452  26.700  0.00  0.00    +0.150 HD
ATOM     27  O   GLY A   1      78.513  93.304  24.604  0.00  0.00    -0.274 OA
BRANCH  24  28
ATOM     28  CA  GLY A   1      77.948  94.384  26.663  0.00  0.00    +0.169 C 
BRANCH  28  29
ATOM     29  N   GLY A   1      78.941  95.373  26.301  0.00  0.00    -0.236 NA
ATOM     30  H   GLY A   1      79.905  95.071  26.053  0.00  0.00    +0.142 HD
ENDBRANCH  28  29
ENDBRANCH  24  28
ENDBRANCH  23  25
ENDBRANCH  19  23
ENDBRANCH  18  20
ENDBRANCH   1  18
TORSDOF 12
REMARK  Name = ../refined-set-2016/4ufk/4ufk_pocket.pdb
REMARK  128 active torsions:
REMARK  status: ('A' for Active; 'I' for Inactive)
REMARK    1  A    between atoms: _1  and  _3
REMARK    2  A    between atoms: _3  and  _4
REMARK    3  A    between atoms: _3  and  _6
REMARK    4  A    between atoms: _9  and  _11
REMARK    5  A    between atoms: _11  and  _12
REMARK    6  A    between atoms: _14  and  _16
REMARK    7  A    between atoms: _16  and  _17
REMARK    8  A    between atoms: _19  and  _21
REMARK    9  A    between atoms: _21  and  _22
REMARK   10  A    between atoms: _24  and  _26
REMARK   11  A    between atoms: _26  and  _27
REMARK   12  A    between atoms: _30  and  _32
REMARK   13  A    between atoms: _32  and  _33
REMARK   14  A    between atoms: _32  and  _35
REMARK   15  A    between atoms: _35  and  _36
REMARK   16  A    between atoms: _39  and  _41
REMARK   17  A    between atoms: _41  and  _42
REMARK   18  A    between atoms: _41  and  _44
REMARK   19  A    between atoms: _44  and  _45
REMARK   20  A    between atoms: _45  and  _46
REMARK   21  A    between atoms: _46  and  _47
REMARK   22  A    between atoms: _47  and  _48
REMARK   23  A    between atoms: _52  and  _54
REMARK   24  A    between atoms: _54  and  _55
REMARK   25  A    between atoms: _54  and  _57
REMARK   26  A    between atoms: _57  and  _58
REMARK   27  A    between atoms: _58  and  _59
REMARK   28  A    between atoms: _62  and  _64
REMARK   29  A    between atoms: _64  and  _65
REMARK   30  A    between atoms: _64  and  _67
REMARK   31  A    between atoms: _67  and  _68
REMARK   32  A    between atoms: _71  and  _73
REMARK   33  A    between atoms: _73  and  _74
REMARK   34  A    between atoms: _73  and  _76
REMARK   35  A    between atoms: _76  and  _77
REMARK   36  A    between atoms: _80  and  _82
REMARK   37  A    between atoms: _82  and  _83
REMARK   38  A    between atoms: _82  and  _85
REMARK   39  A    between atoms: _85  and  _86
REMARK   40  A    between atoms: _89  and  _91
REMARK   41  A    between atoms: _91  and  _92
REMARK   42  A    between atoms: _91  and  _94
REMARK   43  A    between atoms: _94  and  _95
REMARK   44  A    between atoms: _105  and  _107
REMARK   45  A    between atoms: _107  and  _108
REMARK   46  A    between atoms: _107  and  _110
REMARK   47  A    between atoms: _110  and  _111
REMARK   48  A    between atoms: _116  and  _118
REMARK   49  A    between atoms: _118  and  _119
REMARK   50  A    between atoms: _118  and  _121
REMARK   51  A    between atoms: _121  and  _122
REMARK   52  A    between atoms: _122  and  _123
REMARK   53  A    between atoms: _126  and  _128
REMARK   54  A    between atoms: _128  and  _129
REMARK   55  A    between atoms: _128  and  _131
REMARK   56  A    between atoms: _131  and  _132
REMARK   57  A    between atoms: _132  and  _133
REMARK   58  A    between atoms: _133  and  _134
REMARK   59  A    between atoms: _143  and  _145
REMARK   60  A    between atoms: _145  and  _146
REMARK   61  A    between atoms: _145  and  _148
REMARK   62  A    between atoms: _148  and  _149
REMARK   63  A    between atoms: _152  and  _154
REMARK   64  A    between atoms: _154  and  _155
REMARK   65  A    between atoms: _154  and  _157
REMARK   66  A    between atoms: _157  and  _158
REMARK   67  A    between atoms: _163  and  _165
REMARK   68  A    between atoms: _165  and  _166
REMARK   69  A    between atoms: _165  and  _168
REMARK   70  A    between atoms: _168  and  _169
REMARK   71  A    between atoms: _174  and  _175
REMARK   72  A    between atoms: _177  and  _179
REMARK   73  A    between atoms: _179  and  _180
REMARK   74  A    between atoms: _179  and  _182
REMARK   75  A    between atoms: _182  and  _183
REMARK   76  A    between atoms: _183  and  _184
REMARK   77  A    between atoms: _187  and  _189
REMARK   78  A    between atoms: _189  and  _190
REMARK   79  A    between atoms: _189  and  _192
REMARK   80  A    between atoms: _192  and  _193
REMARK   81  A    between atoms: _196  and  _198
REMARK   82  A    between atoms: _198  and  _199
REMARK   83  A    between atoms: _198  and  _201
REMARK   84  A    between atoms: _201  and  _202
REMARK   85  A    between atoms: _208  and  _210
REMARK   86  A    between atoms: _210  and  _211
REMARK   87  A    between atoms: _210  and  _213
REMARK   88  A    between atoms: _213  and  _214
REMARK   89  A    between atoms: _216  and  _218
REMARK   90  A    between atoms: _218  and  _219
REMARK   91  A    between atoms: _218  and  _221
REMARK   92  A    between atoms: _221  and  _222
REMARK   93  A    between atoms: _225  and  _227
REMARK   94  A    between atoms: _227  and  _228
REMARK   95  A    between atoms: _227  and  _230
REMARK   96  A    between atoms: _230  and  _231
REMARK   97  A    between atoms: _241  and  _243
REMARK   98  A    between atoms: _243  and  _244
REMARK   99  A    between atoms: _243  and  _246
REMARK  100  A    between atoms: _246  and  _247
REMARK  101  A    between atoms: _253  and  _254
REMARK  102  A    between atoms: _259  and  _261
REMARK  103  A    between atoms: _261  and  _262
REMARK  104  A    between atoms: _261  and  _264
REMARK  105  A    between atoms: _264  and  _265
REMARK  106  A    between atoms: _270  and  _271
REMARK  107  A    between atoms: _273  and  _275
REMARK  108  A    between atoms: _275  and  _276
REMARK  109  A    between atoms: _275  and  _278
REMARK  110  A    between atoms: _278  and  _279
REMARK  111  A    between atoms: _281  and  _283
REMARK  112  A    between atoms: _283  and  _284
REMARK  113  A    between atoms: _283  and  _286
REMARK  114  A    between atoms: _286  and  _287
REMARK  115  A    between atoms: _290  and  _292
REMARK  116  A    between atoms: _292  and  _293
REMARK  117  A    between atoms: _292  and  _295
REMARK  118  A    between atoms: _295  and  _296
REMARK  119  A    between atoms: _296  and  _297
REMARK  120  A    between atoms: _297  and  _298
REMARK  121  A    between atoms: _307  and  _309
REMARK  122  A    between atoms: _309  and  _310
REMARK  123  A    between atoms: _309  and  _312
REMARK  124  A    between atoms: _312  and  _313
REMARK  125  A    between atoms: _323  and  _325
REMARK  126  A    between atoms: _325  and  _326
REMARK  127  A    between atoms: _325  and  _328
REMARK  128  A    between atoms: _328  and  _329
REMARK                            x       y       z     vdW  Elec       q    Type
REMARK                         _______ _______ _______ _____ _____    ______ ____
ROOT
ATOM      1  CG  LYS A   1      74.475  99.432  21.716  0.00  0.00    -0.000 C 
ENDROOT
BRANCH   1   2
ATOM      2  CB  LYS A   1      75.526 100.502  21.726  0.00  0.00    +0.025 C 
BRANCH   2   3
ATOM      3  CA  LYS A   1      75.730 101.220  23.051  0.00  0.00    +0.133 C 
BRANCH   3   4
ATOM      4  N   LYS A   1      76.817 102.174  22.920  0.00  0.00    -0.239 NA
ATOM      5  H   LYS A   1      77.725 101.847  22.532  0.00  0.00    +0.142 HD
ENDBRANCH   3   4
BRANCH   3   6
ATOM      6  C   LYS A   1      76.034 100.221  24.160  0.00  0.00    +0.224 C 
ATOM      7  O   LYS A   1      77.129  99.649  24.202  0.00  0.00    -0.287 OA
ENDBRANCH   3   6
ENDBRANCH   2   3
ENDBRANCH   1   2
BRANCH   1   8
ATOM      8  CD  LYS A   1      74.242  99.060  20.263  0.00  0.00    -0.024 C 
BRANCH   8   9
ATOM      9  CE  LYS A   1      73.716  97.670  20.132  0.00  0.00    -0.086 C 
BRANCH   9  10
ATOM     10  NZ  LYS A   1      73.578  97.343  18.696  0.00  0.00    +0.380 N 
ATOM     11  HZ1 LYS A   1      73.212  96.375  18.596  0.00  0.00    -0.089 HD
ATOM     12  HZ2 LYS A   1      72.918  98.013  18.251  0.00  0.00    -0.089 HD
ATOM     13  HZ3 LYS A   1      74.508  97.413  18.235  0.00  0.00    -0.089 HD
ENDBRANCH   9  10
ENDBRANCH   8   9
ENDBRANCH   1   8
TORSDOF 7
REMARK  Name = ../refined-set-2016/4ufk/4ufk_pocket.pdb
REMARK  128 active torsions:
REMARK  status: ('A' for Active; 'I' for Inactive)
REMARK    1  A    between atoms: _1  and  _3
REMARK    2  A    between atoms: _3  and  _4
REMARK    3  A    between atoms: _3  and  _6
REMARK    4  A    between atoms: _9  and  _11
REMARK    5  A    between atoms: _11  and  _12
REMARK    6  A    between atoms: _14  and  _16
REMARK    7  A    between atoms: _16  and  _17
REMARK    8  A    between atoms: _19  and  _21
REMARK    9  A    between atoms: _21  and  _22
REMARK   10  A    between atoms: _24  and  _26
REMARK   11  A    between atoms: _26  and  _27
REMARK   12  A    between atoms: _30  and  _32
REMARK   13  A    between atoms: _32  and  _33
REMARK   14  A    between atoms: _32  and  _35
REMARK   15  A    between atoms: _35  and  _36
REMARK   16  A    between atoms: _39  and  _41
REMARK   17  A    between atoms: _41  and  _42
REMARK   18  A    between atoms: _41  and  _44
REMARK   19  A    between atoms: _44  and  _45
REMARK   20  A    between atoms: _45  and  _46
REMARK   21  A    between atoms: _46  and  _47
REMARK   22  A    between atoms: _47  and  _48
REMARK   23  A    between atoms: _52  and  _54
REMARK   24  A    between atoms: _54  and  _55
REMARK   25  A    between atoms: _54  and  _57
REMARK   26  A    between atoms: _57  and  _58
REMARK   27  A    between atoms: _58  and  _59
REMARK   28  A    between atoms: _62  and  _64
REMARK   29  A    between atoms: _64  and  _65
REMARK   30  A    between atoms: _64  and  _67
REMARK   31  A    between atoms: _67  and  _68
REMARK   32  A    between atoms: _71  and  _73
REMARK   33  A    between atoms: _73  and  _74
REMARK   34  A    between atoms: _73  and  _76
REMARK   35  A    between atoms: _76  and  _77
REMARK   36  A    between atoms: _80  and  _82
REMARK   37  A    between atoms: _82  and  _83
REMARK   38  A    between atoms: _82  and  _85
REMARK   39  A    between atoms: _85  and  _86
REMARK   40  A    between atoms: _89  and  _91
REMARK   41  A    between atoms: _91  and  _92
REMARK   42  A    between atoms: _91  and  _94
REMARK   43  A    between atoms: _94  and  _95
REMARK   44  A    between atoms: _105  and  _107
REMARK   45  A    between atoms: _107  and  _108
REMARK   46  A    between atoms: _107  and  _110
REMARK   47  A    between atoms: _110  and  _111
REMARK   48  A    between atoms: _116  and  _118
REMARK   49  A    between atoms: _118  and  _119
REMARK   50  A    between atoms: _118  and  _121
REMARK   51  A    between atoms: _121  and  _122
REMARK   52  A    between atoms: _122  and  _123
REMARK   53  A    between atoms: _126  and  _128
REMARK   54  A    between atoms: _128  and  _129
REMARK   55  A    between atoms: _128  and  _131
REMARK   56  A    between atoms: _131  and  _132
REMARK   57  A    between atoms: _132  and  _133
REMARK   58  A    between atoms: _133  and  _134
REMARK   59  A    between atoms: _143  and  _145
REMARK   60  A    between atoms: _145  and  _146
REMARK   61  A    between atoms: _145  and  _148
REMARK   62  A    between atoms: _148  and  _149
REMARK   63  A    between atoms: _152  and  _154
REMARK   64  A    between atoms: _154  and  _155
REMARK   65  A    between atoms: _154  and  _157
REMARK   66  A    between atoms: _157  and  _158
REMARK   67  A    between atoms: _163  and  _165
REMARK   68  A    between atoms: _165  and  _166
REMARK   69  A    between atoms: _165  and  _168
REMARK   70  A    between atoms: _168  and  _169
REMARK   71  A    between atoms: _174  and  _175
REMARK   72  A    between atoms: _177  and  _179
REMARK   73  A    between atoms: _179  and  _180
REMARK   74  A    between atoms: _179  and  _182
REMARK   75  A    between atoms: _182  and  _183
REMARK   76  A    between atoms: _183  and  _184
REMARK   77  A    between atoms: _187  and  _189
REMARK   78  A    between atoms: _189  and  _190
REMARK   79  A    between atoms: _189  and  _192
REMARK   80  A    between atoms: _192  and  _193
REMARK   81  A    between atoms: _196  and  _198
REMARK   82  A    between atoms: _198  and  _199
REMARK   83  A    between atoms: _198  and  _201
REMARK   84  A    between atoms: _201  and  _202
REMARK   85  A    between atoms: _208  and  _210
REMARK   86  A    between atoms: _210  and  _211
REMARK   87  A    between atoms: _210  and  _213
REMARK   88  A    between atoms: _213  and  _214
REMARK   89  A    between atoms: _216  and  _218
REMARK   90  A    between atoms: _218  and  _219
REMARK   91  A    between atoms: _218  and  _221
REMARK   92  A    between atoms: _221  and  _222
REMARK   93  A    between atoms: _225  and  _227
REMARK   94  A    between atoms: _227  and  _228
REMARK   95  A    between atoms: _227  and  _230
REMARK   96  A    between atoms: _230  and  _231
REMARK   97  A    between atoms: _241  and  _243
REMARK   98  A    between atoms: _243  and  _244
REMARK   99  A    between atoms: _243  and  _246
REMARK  100  A    between atoms: _246  and  _247
REMARK  101  A    between atoms: _253  and  _254
REMARK  102  A    between atoms: _259  and  _261
REMARK  103  A    between atoms: _261  and  _262
REMARK  104  A    between atoms: _261  and  _264
REMARK  105  A    between atoms: _264  and  _265
REMARK  106  A    between atoms: _270  and  _271
REMARK  107  A    between atoms: _273  and  _275
REMARK  108  A    between atoms: _275  and  _276
REMARK  109  A    between atoms: _275  and  _278
REMARK  110  A    between atoms: _278  and  _279
REMARK  111  A    between atoms: _281  and  _283
REMARK  112  A    between atoms: _283  and  _284
REMARK  113  A    between atoms: _283  and  _286
REMARK  114  A    between atoms: _286  and  _287
REMARK  115  A    between atoms: _290  and  _292
REMARK  116  A    between atoms: _292  and  _293
REMARK  117  A    between atoms: _292  and  _295
REMARK  118  A    between atoms: _295  and  _296
REMARK  119  A    between atoms: _296  and  _297
REMARK  120  A    between atoms: _297  and  _298
REMARK  121  A    between atoms: _307  and  _309
REMARK  122  A    between atoms: _309  and  _310
REMARK  123  A    between atoms: _309  and  _312
REMARK  124  A    between atoms: _312  and  _313
REMARK  125  A    between atoms: _323  and  _325
REMARK  126  A    between atoms: _325  and  _326
REMARK  127  A    between atoms: _325  and  _328
REMARK  128  A    between atoms: _328  and  _329
REMARK                            x       y       z     vdW  Elec       q    Type
REMARK                         _______ _______ _______ _____ _____    ______ ____
ROOT
ATOM      1  CA  GLU A   1      73.567  95.886  27.090  0.00  0.00    +0.134 C 
ENDROOT
BRANCH   1   2
ATOM      2  N   GLU A   1      74.549  96.921  26.814  0.00  0.00    -0.239 NA
ATOM      3  H   GLU A   1      75.549  96.743  27.040  0.00  0.00    +0.142 HD
ENDBRANCH   1   2
BRANCH   1   4
ATOM      4  C   GLU A   1      72.653  96.296  28.242  0.00  0.00    +0.224 C 
ATOM      5  O   GLU A   1      73.106  96.847  29.237  0.00  0.00    -0.287 OA
ENDBRANCH   1   4
BRANCH   1   6
ATOM      6  CB  GLU A   1      74.246  94.564  27.421  0.00  0.00    +0.037 C 
BRANCH   6   7
ATOM      7  CG  GLU A   1      73.279  93.497  27.974  0.00  0.00    +0.116 C 
BRANCH   7   8
ATOM      8  CD  GLU A   1      73.960  92.159  28.256  0.00  0.00    +0.365 C 
ATOM      9  OE2 GLU A   1      73.277  91.223  28.708  0.00  0.00    -0.246 OA
ATOM     10  OE1 GLU A   1      75.177  92.025  28.020  0.00  0.00    -0.246 OA
ENDBRANCH   7   8
ENDBRANCH   6   7
ENDBRANCH   1   6
TORSDOF 5
REMARK  Name = ../refined-set-2016/4ufk/4ufk_pocket.pdb
REMARK  128 active torsions:
REMARK  status: ('A' for Active; 'I' for Inactive)
REMARK    1  A    between atoms: _1  and  _3
REMARK    2  A    between atoms: _3  and  _4
REMARK    3  A    between atoms: _3  and  _6
REMARK    4  A    between atoms: _9  and  _11
REMARK    5  A    between atoms: _11  and  _12
REMARK    6  A    between atoms: _14  and  _16
REMARK    7  A    between atoms: _16  and  _17
REMARK    8  A    between atoms: _19  and  _21
REMARK    9  A    between atoms: _21  and  _22
REMARK   10  A    between atoms: _24  and  _26
REMARK   11  A    between atoms: _26  and  _27
REMARK   12  A    between atoms: _30  and  _32
REMARK   13  A    between atoms: _32  and  _33
REMARK   14  A    between atoms: _32  and  _35
REMARK   15  A    between atoms: _35  and  _36
REMARK   16  A    between atoms: _39  and  _41
REMARK   17  A    between atoms: _41  and  _42
REMARK   18  A    between atoms: _41  and  _44
REMARK   19  A    between atoms: _44  and  _45
REMARK   20  A    between atoms: _45  and  _46
REMARK   21  A    between atoms: _46  and  _47
REMARK   22  A    between atoms: _47  and  _48
REMARK   23  A    between atoms: _52  and  _54
REMARK   24  A    between atoms: _54  and  _55
REMARK   25  A    between atoms: _54  and  _57
REMARK   26  A    between atoms: _57  and  _58
REMARK   27  A    between atoms: _58  and  _59
REMARK   28  A    between atoms: _62  and  _64
REMARK   29  A    between atoms: _64  and  _65
REMARK   30  A    between atoms: _64  and  _67
REMARK   31  A    between atoms: _67  and  _68
REMARK   32  A    between atoms: _71  and  _73
REMARK   33  A    between atoms: _73  and  _74
REMARK   34  A    between atoms: _73  and  _76
REMARK   35  A    between atoms: _76  and  _77
REMARK   36  A    between atoms: _80  and  _82
REMARK   37  A    between atoms: _82  and  _83
REMARK   38  A    between atoms: _82  and  _85
REMARK   39  A    between atoms: _85  and  _86
REMARK   40  A    between atoms: _89  and  _91
REMARK   41  A    between atoms: _91  and  _92
REMARK   42  A    between atoms: _91  and  _94
REMARK   43  A    between atoms: _94  and  _95
REMARK   44  A    between atoms: _105  and  _107
REMARK   45  A    between atoms: _107  and  _108
REMARK   46  A    between atoms: _107  and  _110
REMARK   47  A    between atoms: _110  and  _111
REMARK   48  A    between atoms: _116  and  _118
REMARK   49  A    between atoms: _118  and  _119
REMARK   50  A    between atoms: _118  and  _121
REMARK   51  A    between atoms: _121  and  _122
REMARK   52  A    between atoms: _122  and  _123
REMARK   53  A    between atoms: _126  and  _128
REMARK   54  A    between atoms: _128  and  _129
REMARK   55  A    between atoms: _128  and  _131
REMARK   56  A    between atoms: _131  and  _132
REMARK   57  A    between atoms: _132  and  _133
REMARK   58  A    between atoms: _133  and  _134
REMARK   59  A    between atoms: _143  and  _145
REMARK   60  A    between atoms: _145  and  _146
REMARK   61  A    between atoms: _145  and  _148
REMARK   62  A    between atoms: _148  and  _149
REMARK   63  A    between atoms: _152  and  _154
REMARK   64  A    between atoms: _154  and  _155
REMARK   65  A    between atoms: _154  and  _157
REMARK   66  A    between atoms: _157  and  _158
REMARK   67  A    between atoms: _163  and  _165
REMARK   68  A    between atoms: _165  and  _166
REMARK   69  A    between atoms: _165  and  _168
REMARK   70  A    between atoms: _168  and  _169
REMARK   71  A    between atoms: _174  and  _175
REMARK   72  A    between atoms: _177  and  _179
REMARK   73  A    between atoms: _179  and  _180
REMARK   74  A    between atoms: _179  and  _182
REMARK   75  A    between atoms: _182  and  _183
REMARK   76  A    between atoms: _183  and  _184
REMARK   77  A    between atoms: _187  and  _189
REMARK   78  A    between atoms: _189  and  _190
REMARK   79  A    between atoms: _189  and  _192
REMARK   80  A    between atoms: _192  and  _193
REMARK   81  A    between atoms: _196  and  _198
REMARK   82  A    between atoms: _198  and  _199
REMARK   83  A    between atoms: _198  and  _201
REMARK   84  A    between atoms: _201  and  _202
REMARK   85  A    between atoms: _208  and  _210
REMARK   86  A    between atoms: _210  and  _211
REMARK   87  A    between atoms: _210  and  _213
REMARK   88  A    between atoms: _213  and  _214
REMARK   89  A    between atoms: _216  and  _218
REMARK   90  A    between atoms: _218  and  _219
REMARK   91  A    between atoms: _218  and  _221
REMARK   92  A    between atoms: _221  and  _222
REMARK   93  A    between atoms: _225  and  _227
REMARK   94  A    between atoms: _227  and  _228
REMARK   95  A    between atoms: _227  and  _230
REMARK   96  A    between atoms: _230  and  _231
REMARK   97  A    between atoms: _241  and  _243
REMARK   98  A    between atoms: _243  and  _244
REMARK   99  A    between atoms: _243  and  _246
REMARK  100  A    between atoms: _246  and  _247
REMARK  101  A    between atoms: _253  and  _254
REMARK  102  A    between atoms: _259  and  _261
REMARK  103  A    between atoms: _261  and  _262
REMARK  104  A    between atoms: _261  and  _264
REMARK  105  A    between atoms: _264  and  _265
REMARK  106  A    between atoms: _270  and  _271
REMARK  107  A    between atoms: _273  and  _275
REMARK  108  A    between atoms: _275  and  _276
REMARK  109  A    between atoms: _275  and  _278
REMARK  110  A    between atoms: _278  and  _279
REMARK  111  A    between atoms: _281  and  _283
REMARK  112  A    between atoms: _283  and  _284
REMARK  113  A    between atoms: _283  and  _286
REMARK  114  A    between atoms: _286  and  _287
REMARK  115  A    between atoms: _290  and  _292
REMARK  116  A    between atoms: _292  and  _293
REMARK  117  A    between atoms: _292  and  _295
REMARK  118  A    between atoms: _295  and  _296
REMARK  119  A    between atoms: _296  and  _297
REMARK  120  A    between atoms: _297  and  _298
REMARK  121  A    between atoms: _307  and  _309
REMARK  122  A    between atoms: _309  and  _310
REMARK  123  A    between atoms: _309  and  _312
REMARK  124  A    between atoms: _312  and  _313
REMARK  125  A    between atoms: _323  and  _325
REMARK  126  A    between atoms: _325  and  _326
REMARK  127  A    between atoms: _325  and  _328
REMARK  128  A    between atoms: _328  and  _329
REMARK                            x       y       z     vdW  Elec       q    Type
REMARK                         _______ _______ _______ _____ _____    ______ ____
ROOT
ATOM      1  CA  THR A   2      78.921  85.914  25.294  0.00  0.00    +0.176 C 
ENDROOT
BRANCH   1   3
ATOM      2  C   THR A   1      76.749  87.088  25.848  0.00  0.00    +0.241 C 
ATOM      3  N   THR A   2      77.799  86.330  26.175  0.00  0.00    -0.295 N 
ATOM      4  H   THR A   2      77.835  85.993  27.158  0.00  0.00    +0.150 HD
ATOM      5  O   THR A   1      76.753  87.932  24.966  0.00  0.00    -0.274 OA
BRANCH   2   6
ATOM      6  CA  THR A   1      75.484  86.883  26.684  0.00  0.00    +0.172 C 
BRANCH   6   7
ATOM      7  N   THR A   1      75.698  86.218  27.948  0.00  0.00    -0.236 NA
ATOM      8  H   THR A   1      76.485  86.497  28.568  0.00  0.00    +0.142 HD
ENDBRANCH   6   7
BRANCH   6   9
ATOM      9  CB  THR A   1      74.778  88.229  26.911  0.00  0.00    +0.135 C 
ATOM     10  CG2 THR A   1      73.408  87.971  27.460  0.00  0.00    +0.034 C 
BRANCH   9  11
ATOM     11  OG1 THR A   1      75.497  88.998  27.878  0.00  0.00    -0.383 OA
ATOM     12  HG1 THR A   1      75.036  89.863  28.019  0.00  0.00    +0.210 HD
ENDBRANCH   9  11
ENDBRANCH   6   9
ENDBRANCH   2   6
ENDBRANCH   1   3
BRANCH   1  13
ATOM     13  C   THR A   2      80.213  85.734  26.076  0.00  0.00    +0.243 C 
ATOM     14  N   ASP A   3      80.533  86.675  26.960  0.00  0.00    -0.297 N 
ATOM     15  H   ASP A   3      79.931  87.519  27.043  0.00  0.00    +0.150 HD
ATOM     16  O   THR A   2      80.900  84.744  25.880  0.00  0.00    -0.273 OA
BRANCH  14  17
ATOM     17  CA  ASP A   3      81.709  86.553  27.817  0.00  0.00    +0.148 C 
BRANCH  17  18
ATOM     18  C   ASP A   3      81.359  86.660  29.295  0.00  0.00    +0.227 C 
ATOM     19  O   ASP A   3      82.206  86.937  30.149  0.00  0.00    -0.286 OA
ENDBRANCH  17  18
BRANCH  17  20
ATOM     20  CB  ASP A   3      82.741  87.606  27.448  0.00  0.00    +0.142 C 
BRANCH  20  21
ATOM     21  CG  ASP A   3      83.239  87.437  26.026  0.00  0.00    +0.367 C 
ATOM     22  OD2 ASP A   3      83.972  86.460  25.789  0.00  0.00    -0.246 OA
ATOM     23  OD1 ASP A   3      82.884  88.253  25.144  0.00  0.00    -0.246 OA
ENDBRANCH  20  21
ENDBRANCH  17  20
ENDBRANCH  14  17
ENDBRANCH   1  13
BRANCH   1  24
ATOM     24  CB  THR A   2      79.213  86.863  24.102  0.00  0.00    +0.137 C 
ATOM     25  CG2 THR A   2      80.434  86.394  23.325  0.00  0.00    +0.034 C 
BRANCH  24  26
ATOM     26  OG1 THR A   2      78.102  86.833  23.205  0.00  0.00    -0.382 OA
ATOM     27  HG1 THR A   2      78.280  87.436  22.441  0.00  0.00    +0.210 HD
ENDBRANCH  24  26
ENDBRANCH   1  24
TORSDOF 12
REMARK  Name = ../refined-set-2016/4ufk/4ufk_pocket.pdb
REMARK  128 active torsions:
REMARK  status: ('A' for Active; 'I' for Inactive)
REMARK    1  A    between atoms: _1  and  _3
REMARK    2  A    between atoms: _3  and  _4
REMARK    3  A    between atoms: _3  and  _6
REMARK    4  A    between atoms: _9  and  _11
REMARK    5  A    between atoms: _11  and  _12
REMARK    6  A    between atoms: _14  and  _16
REMARK    7  A    between atoms: _16  and  _17
REMARK    8  A    between atoms: _19  and  _21
REMARK    9  A    between atoms: _21  and  _22
REMARK   10  A    between atoms: _24  and  _26
REMARK   11  A    between atoms: _26  and  _27
REMARK   12  A    between atoms: _30  and  _32
REMARK   13  A    between atoms: _32  and  _33
REMARK   14  A    between atoms: _32  and  _35
REMARK   15  A    between atoms: _35  and  _36
REMARK   16  A    between atoms: _39  and  _41
REMARK   17  A    between atoms: _41  and  _42
REMARK   18  A    between atoms: _41  and  _44
REMARK   19  A    between atoms: _44  and  _45
REMARK   20  A    between atoms: _45  and  _46
REMARK   21  A    between atoms: _46  and  _47
REMARK   22  A    between atoms: _47  and  _48
REMARK   23  A    between atoms: _52  and  _54
REMARK   24  A    between atoms: _54  and  _55
REMARK   25  A    between atoms: _54  and  _57
REMARK   26  A    between atoms: _57  and  _58
REMARK   27  A    between atoms: _58  and  _59
REMARK   28  A    between atoms: _62  and  _64
REMARK   29  A    between atoms: _64  and  _65
REMARK   30  A    between atoms: _64  and  _67
REMARK   31  A    between atoms: _67  and  _68
REMARK   32  A    between atoms: _71  and  _73
REMARK   33  A    between atoms: _73  and  _74
REMARK   34  A    between atoms: _73  and  _76
REMARK   35  A    between atoms: _76  and  _77
REMARK   36  A    between atoms: _80  and  _82
REMARK   37  A    between atoms: _82  and  _83
REMARK   38  A    between atoms: _82  and  _85
REMARK   39  A    between atoms: _85  and  _86
REMARK   40  A    between atoms: _89  and  _91
REMARK   41  A    between atoms: _91  and  _92
REMARK   42  A    between atoms: _91  and  _94
REMARK   43  A    between atoms: _94  and  _95
REMARK   44  A    between atoms: _105  and  _107
REMARK   45  A    between atoms: _107  and  _108
REMARK   46  A    between atoms: _107  and  _110
REMARK   47  A    between atoms: _110  and  _111
REMARK   48  A    between atoms: _116  and  _118
REMARK   49  A    between atoms: _118  and  _119
REMARK   50  A    between atoms: _118  and  _121
REMARK   51  A    between atoms: _121  and  _122
REMARK   52  A    between atoms: _122  and  _123
REMARK   53  A    between atoms: _126  and  _128
REMARK   54  A    between atoms: _128  and  _129
REMARK   55  A    between atoms: _128  and  _131
REMARK   56  A    between atoms: _131  and  _132
REMARK   57  A    between atoms: _132  and  _133
REMARK   58  A    between atoms: _133  and  _134
REMARK   59  A    between atoms: _143  and  _145
REMARK   60  A    between atoms: _145  and  _146
REMARK   61  A    between atoms: _145  and  _148
REMARK   62  A    between atoms: _148  and  _149
REMARK   63  A    between atoms: _152  and  _154
REMARK   64  A    between atoms: _154  and  _155
REMARK   65  A    between atoms: _154  and  _157
REMARK   66  A    between atoms: _157  and  _158
REMARK   67  A    between atoms: _163  and  _165
REMARK   68  A    between atoms: _165  and  _166
REMARK   69  A    between atoms: _165  and  _168
REMARK   70  A    between atoms: _168  and  _169
REMARK   71  A    between atoms: _174  and  _175
REMARK   72  A    between atoms: _177  and  _179
REMARK   73  A    between atoms: _179  and  _180
REMARK   74  A    between atoms: _179  and  _182
REMARK   75  A    between atoms: _182  and  _183
REMARK   76  A    between atoms: _183  and  _184
REMARK   77  A    between atoms: _187  and  _189
REMARK   78  A    between atoms: _189  and  _190
REMARK   79  A    between atoms: _189  and  _192
REMARK   80  A    between atoms: _192  and  _193
REMARK   81  A    between atoms: _196  and  _198
REMARK   82  A    between atoms: _198  and  _199
REMARK   83  A    between atoms: _198  and  _201
REMARK   84  A    between atoms: _201  and  _202
REMARK   85  A    between atoms: _208  and  _210
REMARK   86  A    between atoms: _210  and  _211
REMARK   87  A    between atoms: _210  and  _213
REMARK   88  A    between atoms: _213  and  _214
REMARK   89  A    between atoms: _216  and  _218
REMARK   90  A    between atoms: _218  and  _219
REMARK   91  A    between atoms: _218  and  _221
REMARK   92  A    between atoms: _221  and  _222
REMARK   93  A    between atoms: _225  and  _227
REMARK   94  A    between atoms: _227  and  _228
REMARK   95  A    between atoms: _227  and  _230
REMARK   96  A    between atoms: _230  and  _231
REMARK   97  A    between atoms: _241  and  _243
REMARK   98  A    between atoms: _243  and  _244
REMARK   99  A    between atoms: _243  and  _246
REMARK  100  A    between atoms: _246  and  _247
REMARK  101  A    between atoms: _253  and  _254
REMARK  102  A    between atoms: _259  and  _261
REMARK  103  A    between atoms: _261  and  _262
REMARK  104  A    between atoms: _261  and  _264
REMARK  105  A    between atoms: _264  and  _265
REMARK  106  A    between atoms: _270  and  _271
REMARK  107  A    between atoms: _273  and  _275
REMARK  108  A    between atoms: _275  and  _276
REMARK  109  A    between atoms: _275  and  _278
REMARK  110  A    between atoms: _278  and  _279
REMARK  111  A    between atoms: _281  and  _283
REMARK  112  A    between atoms: _283  and  _284
REMARK  113  A    between atoms: _283  and  _286
REMARK  114  A    between atoms: _286  and  _287
REMARK  115  A    between atoms: _290  and  _292
REMARK  116  A    between atoms: _292  and  _293
REMARK  117  A    between atoms: _292  and  _295
REMARK  118  A    between atoms: _295  and  _296
REMARK  119  A    between atoms: _296  and  _297
REMARK  120  A    between atoms: _297  and  _298
REMARK  121  A    between atoms: _307  and  _309
REMARK  122  A    between atoms: _309  and  _310
REMARK  123  A    between atoms: _309  and  _312
REMARK  124  A    between atoms: _312  and  _313
REMARK  125  A    between atoms: _323  and  _325
REMARK  126  A    between atoms: _325  and  _326
REMARK  127  A    between atoms: _325  and  _328
REMARK  128  A    between atoms: _328  and  _329
REMARK                            x       y       z     vdW  Elec       q    Type
REMARK                         _______ _______ _______ _____ _____    ______ ____
ROOT
ATOM      1  CG  TRP A   1      72.758  90.391  24.339  0.00  0.00    -0.002 A 
ATOM      2  CD2 TRP A   1      73.195  91.707  23.938  0.00  0.00    +0.013 A 
ATOM      3  CE3 TRP A   1      72.830  93.007  24.305  0.00  0.00    +0.001 A 
ATOM      4  CZ3 TRP A   1      73.464  94.076  23.694  0.00  0.00    +0.000 A 
ATOM      5  CH2 TRP A   1      74.452  93.873  22.720  0.00  0.00    +0.001 A 
ATOM      6  CZ2 TRP A   1      74.834  92.610  22.343  0.00  0.00    +0.017 A 
ATOM      7  CE2 TRP A   1      74.194  91.529  22.962  0.00  0.00    +0.056 A 
ATOM      8  NE1 TRP A   1      74.362  90.186  22.789  0.00  0.00    -0.352 N 
ATOM      9  HE1 TRP A   1      75.036  89.743  22.133  0.00  0.00    +0.166 HD
ATOM     10  CD1 TRP A   1      73.500  89.512  23.619  0.00  0.00    +0.068 A 
ENDROOT
BRANCH   1  11
ATOM     11  CB  TRP A   1      71.748  90.053  25.383  0.00  0.00    +0.053 C 
BRANCH  11  12
ATOM     12  CA  TRP A   1      70.264  90.295  25.074  0.00  0.00    +0.137 C 
BRANCH  12  13
ATOM     13  N   TRP A   1      69.830  91.598  25.585  0.00  0.00    -0.239 NA
ATOM     14  H   TRP A   1      70.123  91.871  26.545  0.00  0.00    +0.142 HD
ENDBRANCH  12  13
BRANCH  12  15
ATOM     15  C   TRP A   1      69.433  89.194  25.739  0.00  0.00    +0.224 C 
ATOM     16  O   TRP A   1      68.907  88.306  25.092  0.00  0.00    -0.287 OA
ENDBRANCH  12  15
ENDBRANCH  11  12
ENDBRANCH   1  11
TORSDOF 4
REMARK  Name = ../refined-set-2016/4ufk/4ufk_pocket.pdb
REMARK  128 active torsions:
REMARK  status: ('A' for Active; 'I' for Inactive)
REMARK    1  A    between atoms: _1  and  _3
REMARK    2  A    between atoms: _3  and  _4
REMARK    3  A    between atoms: _3  and  _6
REMARK    4  A    between atoms: _9  and  _11
REMARK    5  A    between atoms: _11  and  _12
REMARK    6  A    between atoms: _14  and  _16
REMARK    7  A    between atoms: _16  and  _17
REMARK    8  A    between atoms: _19  and  _21
REMARK    9  A    between atoms: _21  and  _22
REMARK   10  A    between atoms: _24  and  _26
REMARK   11  A    between atoms: _26  and  _27
REMARK   12  A    between atoms: _30  and  _32
REMARK   13  A    between atoms: _32  and  _33
REMARK   14  A    between atoms: _32  and  _35
REMARK   15  A    between atoms: _35  and  _36
REMARK   16  A    between atoms: _39  and  _41
REMARK   17  A    between atoms: _41  and  _42
REMARK   18  A    between atoms: _41  and  _44
REMARK   19  A    between atoms: _44  and  _45
REMARK   20  A    between atoms: _45  and  _46
REMARK   21  A    between atoms: _46  and  _47
REMARK   22  A    between atoms: _47  and  _48
REMARK   23  A    between atoms: _52  and  _54
REMARK   24  A    between atoms: _54  and  _55
REMARK   25  A    between atoms: _54  and  _57
REMARK   26  A    between atoms: _57  and  _58
REMARK   27  A    between atoms: _58  and  _59
REMARK   28  A    between atoms: _62  and  _64
REMARK   29  A    between atoms: _64  and  _65
REMARK   30  A    between atoms: _64  and  _67
REMARK   31  A    between atoms: _67  and  _68
REMARK   32  A    between atoms: _71  and  _73
REMARK   33  A    between atoms: _73  and  _74
REMARK   34  A    between atoms: _73  and  _76
REMARK   35  A    between atoms: _76  and  _77
REMARK   36  A    between atoms: _80  and  _82
REMARK   37  A    between atoms: _82  and  _83
REMARK   38  A    between atoms: _82  and  _85
REMARK   39  A    between atoms: _85  and  _86
REMARK   40  A    between atoms: _89  and  _91
REMARK   41  A    between atoms: _91  and  _92
REMARK   42  A    between atoms: _91  and  _94
REMARK   43  A    between atoms: _94  and  _95
REMARK   44  A    between atoms: _105  and  _107
REMARK   45  A    between atoms: _107  and  _108
REMARK   46  A    between atoms: _107  and  _110
REMARK   47  A    between atoms: _110  and  _111
REMARK   48  A    between atoms: _116  and  _118
REMARK   49  A    between atoms: _118  and  _119
REMARK   50  A    between atoms: _118  and  _121
REMARK   51  A    between atoms: _121  and  _122
REMARK   52  A    between atoms: _122  and  _123
REMARK   53  A    between atoms: _126  and  _128
REMARK   54  A    between atoms: _128  and  _129
REMARK   55  A    between atoms: _128  and  _131
REMARK   56  A    between atoms: _131  and  _132
REMARK   57  A    between atoms: _132  and  _133
REMARK   58  A    between atoms: _133  and  _134
REMARK   59  A    between atoms: _143  and  _145
REMARK   60  A    between atoms: _145  and  _146
REMARK   61  A    between atoms: _145  and  _148
REMARK   62  A    between atoms: _148  and  _149
REMARK   63  A    between atoms: _152  and  _154
REMARK   64  A    between atoms: _154  and  _155
REMARK   65  A    between atoms: _154  and  _157
REMARK   66  A    between atoms: _157  and  _158
REMARK   67  A    between atoms: _163  and  _165
REMARK   68  A    between atoms: _165  and  _166
REMARK   69  A    between atoms: _165  and  _168
REMARK   70  A    between atoms: _168  and  _169
REMARK   71  A    between atoms: _174  and  _175
REMARK   72  A    between atoms: _177  and  _179
REMARK   73  A    between atoms: _179  and  _180
REMARK   74  A    between atoms: _179  and  _182
REMARK   75  A    between atoms: _182  and  _183
REMARK   76  A    between atoms: _183  and  _184
REMARK   77  A    between atoms: _187  and  _189
REMARK   78  A    between atoms: _189  and  _190
REMARK   79  A    between atoms: _189  and  _192
REMARK   80  A    between atoms: _192  and  _193
REMARK   81  A    between atoms: _196  and  _198
REMARK   82  A    between atoms: _198  and  _199
REMARK   83  A    between atoms: _198  and  _201
REMARK   84  A    between atoms: _201  and  _202
REMARK   85  A    between atoms: _208  and  _210
REMARK   86  A    between atoms: _210  and  _211
REMARK   87  A    between atoms: _210  and  _213
REMARK   88  A    between atoms: _213  and  _214
REMARK   89  A    between atoms: _216  and  _218
REMARK   90  A    between atoms: _218  and  _219
REMARK   91  A    between atoms: _218  and  _221
REMARK   92  A    between atoms: _221  and  _222
REMARK   93  A    between atoms: _225  and  _227
REMARK   94  A    between atoms: _227  and  _228
REMARK   95  A    between atoms: _227  and  _230
REMARK   96  A    between atoms: _230  and  _231
REMARK   97  A    between atoms: _241  and  _243
REMARK   98  A    between atoms: _243  and  _244
REMARK   99  A    between atoms: _243  and  _246
REMARK  100  A    between atoms: _246  and  _247
REMARK  101  A    between atoms: _253  and  _254
REMARK  102  A    between atoms: _259  and  _261
REMARK  103  A    between atoms: _261  and  _262
REMARK  104  A    between atoms: _261  and  _264
REMARK  105  A    between atoms: _264  and  _265
REMARK  106  A    between atoms: _270  and  _271
REMARK  107  A    between atoms: _273  and  _275
REMARK  108  A    between atoms: _275  and  _276
REMARK  109  A    between atoms: _275  and  _278
REMARK  110  A    between atoms: _278  and  _279
REMARK  111  A    between atoms: _281  and  _283
REMARK  112  A    between atoms: _283  and  _284
REMARK  113  A    between atoms: _283  and  _286
REMARK  114  A    between atoms: _286  and  _287
REMARK  115  A    between atoms: _290  and  _292
REMARK  116  A    between atoms: _292  and  _293
REMARK  117  A    between atoms: _292  and  _295
REMARK  118  A    between atoms: _295  and  _296
REMARK  119  A    between atoms: _296  and  _297
REMARK  120  A    between atoms: _297  and  _298
REMARK  121  A    between atoms: _307  and  _309
REMARK  122  A    between atoms: _309  and  _310
REMARK  123  A    between atoms: _309  and  _312
REMARK  124  A    between atoms: _312  and  _313
REMARK  125  A    between atoms: _323  and  _325
REMARK  126  A    between atoms: _325  and  _326
REMARK  127  A    between atoms: _325  and  _328
REMARK  128  A    between atoms: _328  and  _329
REMARK                            x       y       z     vdW  Elec       q    Type
REMARK                         _______ _______ _______ _____ _____    ______ ____
ROOT
ATOM      1  CA  GLU A   2      69.908  88.844  17.052  0.00  0.00    +0.149 C 
ENDROOT
BRANCH   1   4
ATOM      2  C   ASN A   1      69.757  89.893  19.276  0.00  0.00    +0.239 C 
ATOM      3  O   ASN A   1      69.860  88.826  19.881  0.00  0.00    -0.274 OA
ATOM      4  N   GLU A   2      69.731  89.990  17.944  0.00  0.00    -0.297 N 
ATOM      5  H   GLU A   2      69.577  90.927  17.520  0.00  0.00    +0.150 HD
BRANCH   2   6
ATOM      6  CA  ASN A   1      69.665  91.201  20.043  0.00  0.00    +0.154 C 
BRANCH   6   7
ATOM      7  N   ASN A   1      68.455  91.382  20.836  0.00  0.00    -0.238 NA
ATOM      8  H   ASN A   1      68.552  91.641  21.838  0.00  0.00    +0.142 HD
ENDBRANCH   6   7
BRANCH   6   9
ATOM      9  CB  ASN A   1      70.884  91.318  20.941  0.00  0.00    +0.111 C 
BRANCH   9  10
ATOM     10  CG  ASN A   1      72.171  91.365  20.162  0.00  0.00    +0.221 C 
ATOM     11  ND2 ASN A   1      72.950  90.282  20.226  0.00  0.00    -0.329 N 
ATOM     12 HD21 ASN A   1      72.656  89.463  20.795  0.00  0.00    +0.145 HD
ATOM     13 HD22 ASN A   1      73.851  90.258  19.707  0.00  0.00    +0.145 HD
ATOM     14  OD1 ASN A   1      72.468  92.367  19.503  0.00  0.00    -0.275 OA
ENDBRANCH   9  10
ENDBRANCH   6   9
ENDBRANCH   2   6
ENDBRANCH   1   4
BRANCH   1  15
ATOM     15  C   GLU A   2      68.897  87.753  17.351  0.00  0.00    +0.241 C 
ATOM     16  N   ARG A   3      67.714  88.177  17.774  0.00  0.00    -0.298 N 
ATOM     17  H   ARG A   3      67.560  89.202  17.863  0.00  0.00    +0.150 HD
ATOM     18  O   GLU A   2      69.176  86.572  17.191  0.00  0.00    -0.273 OA
BRANCH  16  19
ATOM     19  CA  ARG A   3      66.625  87.287  18.118  0.00  0.00    +0.137 C 
BRANCH  19  20
ATOM     20  C   ARG A   3      65.366  87.829  17.445  0.00  0.00    +0.227 C 
ATOM     21  O   ARG A   3      65.333  88.998  17.058  0.00  0.00    -0.286 OA
ENDBRANCH  19  20
BRANCH  19  22
ATOM     22  CB  ARG A   3      66.463  87.197  19.641  0.00  0.00    +0.031 C 
BRANCH  22  23
ATOM     23  CG  ARG A   3      67.599  86.474  20.338  0.00  0.00    +0.045 C 
BRANCH  23  24
ATOM     24  CD  ARG A   3      67.745  85.050  19.801  0.00  0.00    +0.174 C 
BRANCH  24  25
ATOM     25  NE  ARG A   3      68.827  84.343  20.473  0.00  0.00    -0.265 N 
ATOM     26  HE  ARG A   3      68.598  83.822  21.343  0.00  0.00    +0.259 HD
ATOM     27  CZ  ARG A   3      70.087  84.318  20.051  0.00  0.00    +0.342 C 
ATOM     28  NH2 ARG A   3      71.000  83.652  20.739  0.00  0.00    -0.292 N 
ATOM     29 HH21 ARG A   3      70.731  83.149  21.609  0.00  0.00    +0.255 HD
ATOM     30 HH22 ARG A   3      71.986  83.631  20.410  0.00  0.00    +0.255 HD
ATOM     31  NH1 ARG A   3      70.431  84.935  18.925  0.00  0.00    -0.292 N 
ATOM     32 HH11 ARG A   3      71.419  84.912  18.600  0.00  0.00    +0.255 HD
ATOM     33 HH12 ARG A   3      69.712  85.441  18.369  0.00  0.00    +0.255 HD
ENDBRANCH  24  25
ENDBRANCH  23  24
ENDBRANCH  22  23
ENDBRANCH  19  22
ENDBRANCH  16  19
ENDBRANCH   1  15
BRANCH   1  34
ATOM     34  CB  GLU A   2      71.340  88.287  17.138  0.00  0.00    +0.041 C 
BRANCH  34  35
ATOM     35  CG  GLU A   2      72.419  89.316  16.760  0.00  0.00    +0.116 C 
BRANCH  35  36
ATOM     36  CD  GLU A   2      73.842  88.763  16.787  0.00  0.00    +0.365 C 
ATOM     37  OE2 GLU A   2      74.030  87.600  17.214  0.00  0.00    -0.246 OA
ATOM     38  OE1 GLU A   2      74.769  89.502  16.373  0.00  0.00    -0.246 OA
ENDBRANCH  35  36
ENDBRANCH  34  35
ENDBRANCH   1  34
TORSDOF 15
REMARK  Name = ../refined-set-2016/4ufk/4ufk_pocket.pdb
REMARK  128 active torsions:
REMARK  status: ('A' for Active; 'I' for Inactive)
REMARK    1  A    between atoms: _1  and  _3
REMARK    2  A    between atoms: _3  and  _4
REMARK    3  A    between atoms: _3  and  _6
REMARK    4  A    between atoms: _9  and  _11
REMARK    5  A    between atoms: _11  and  _12
REMARK    6  A    between atoms: _14  and  _16
REMARK    7  A    between atoms: _16  and  _17
REMARK    8  A    between atoms: _19  and  _21
REMARK    9  A    between atoms: _21  and  _22
REMARK   10  A    between atoms: _24  and  _26
REMARK   11  A    between atoms: _26  and  _27
REMARK   12  A    between atoms: _30  and  _32
REMARK   13  A    between atoms: _32  and  _33
REMARK   14  A    between atoms: _32  and  _35
REMARK   15  A    between atoms: _35  and  _36
REMARK   16  A    between atoms: _39  and  _41
REMARK   17  A    between atoms: _41  and  _42
REMARK   18  A    between atoms: _41  and  _44
REMARK   19  A    between atoms: _44  and  _45
REMARK   20  A    between atoms: _45  and  _46
REMARK   21  A    between atoms: _46  and  _47
REMARK   22  A    between atoms: _47  and  _48
REMARK   23  A    between atoms: _52  and  _54
REMARK   24  A    between atoms: _54  and  _55
REMARK   25  A    between atoms: _54  and  _57
REMARK   26  A    between atoms: _57  and  _58
REMARK   27  A    between atoms: _58  and  _59
REMARK   28  A    between atoms: _62  and  _64
REMARK   29  A    between atoms: _64  and  _65
REMARK   30  A    between atoms: _64  and  _67
REMARK   31  A    between atoms: _67  and  _68
REMARK   32  A    between atoms: _71  and  _73
REMARK   33  A    between atoms: _73  and  _74
REMARK   34  A    between atoms: _73  and  _76
REMARK   35  A    between atoms: _76  and  _77
REMARK   36  A    between atoms: _80  and  _82
REMARK   37  A    between atoms: _82  and  _83
REMARK   38  A    between atoms: _82  and  _85
REMARK   39  A    between atoms: _85  and  _86
REMARK   40  A    between atoms: _89  and  _91
REMARK   41  A    between atoms: _91  and  _92
REMARK   42  A    between atoms: _91  and  _94
REMARK   43  A    between atoms: _94  and  _95
REMARK   44  A    between atoms: _105  and  _107
REMARK   45  A    between atoms: _107  and  _108
REMARK   46  A    between atoms: _107  and  _110
REMARK   47  A    between atoms: _110  and  _111
REMARK   48  A    between atoms: _116  and  _118
REMARK   49  A    between atoms: _118  and  _119
REMARK   50  A    between atoms: _118  and  _121
REMARK   51  A    between atoms: _121  and  _122
REMARK   52  A    between atoms: _122  and  _123
REMARK   53  A    between atoms: _126  and  _128
REMARK   54  A    between atoms: _128  and  _129
REMARK   55  A    between atoms: _128  and  _131
REMARK   56  A    between atoms: _131  and  _132
REMARK   57  A    between atoms: _132  and  _133
REMARK   58  A    between atoms: _133  and  _134
REMARK   59  A    between atoms: _143  and  _145
REMARK   60  A    between atoms: _145  and  _146
REMARK   61  A    between atoms: _145  and  _148
REMARK   62  A    between atoms: _148  and  _149
REMARK   63  A    between atoms: _152  and  _154
REMARK   64  A    between atoms: _154  and  _155
REMARK   65  A    between atoms: _154  and  _157
REMARK   66  A    between atoms: _157  and  _158
REMARK   67  A    between atoms: _163  and  _165
REMARK   68  A    between atoms: _165  and  _166
REMARK   69  A    between atoms: _165  and  _168
REMARK   70  A    between atoms: _168  and  _169
REMARK   71  A    between atoms: _174  and  _175
REMARK   72  A    between atoms: _177  and  _179
REMARK   73  A    between atoms: _179  and  _180
REMARK   74  A    between atoms: _179  and  _182
REMARK   75  A    between atoms: _182  and  _183
REMARK   76  A    between atoms: _183  and  _184
REMARK   77  A    between atoms: _187  and  _189
REMARK   78  A    between atoms: _189  and  _190
REMARK   79  A    between atoms: _189  and  _192
REMARK   80  A    between atoms: _192  and  _193
REMARK   81  A    between atoms: _196  and  _198
REMARK   82  A    between atoms: _198  and  _199
REMARK   83  A    between atoms: _198  and  _201
REMARK   84  A    between atoms: _201  and  _202
REMARK   85  A    between atoms: _208  and  _210
REMARK   86  A    between atoms: _210  and  _211
REMARK   87  A    between atoms: _210  and  _213
REMARK   88  A    between atoms: _213  and  _214
REMARK   89  A    between atoms: _216  and  _218
REMARK   90  A    between atoms: _218  and  _219
REMARK   91  A    between atoms: _218  and  _221
REMARK   92  A    between atoms: _221  and  _222
REMARK   93  A    between atoms: _225  and  _227
REMARK   94  A    between atoms: _227  and  _228
REMARK   95  A    between atoms: _227  and  _230
REMARK   96  A    between atoms: _230  and  _231
REMARK   97  A    between atoms: _241  and  _243
REMARK   98  A    between atoms: _243  and  _244
REMARK   99  A    between atoms: _243  and  _246
REMARK  100  A    between atoms: _246  and  _247
REMARK  101  A    between atoms: _253  and  _254
REMARK  102  A    between atoms: _259  and  _261
REMARK  103  A    between atoms: _261  and  _262
REMARK  104  A    between atoms: _261  and  _264
REMARK  105  A    between atoms: _264  and  _265
REMARK  106  A    between atoms: _270  and  _271
REMARK  107  A    between atoms: _273  and  _275
REMARK  108  A    between atoms: _275  and  _276
REMARK  109  A    between atoms: _275  and  _278
REMARK  110  A    between atoms: _278  and  _279
REMARK  111  A    between atoms: _281  and  _283
REMARK  112  A    between atoms: _283  and  _284
REMARK  113  A    between atoms: _283  and  _286
REMARK  114  A    between atoms: _286  and  _287
REMARK  115  A    between atoms: _290  and  _292
REMARK  116  A    between atoms: _292  and  _293
REMARK  117  A    between atoms: _292  and  _295
REMARK  118  A    between atoms: _295  and  _296
REMARK  119  A    between atoms: _296  and  _297
REMARK  120  A    between atoms: _297  and  _298
REMARK  121  A    between atoms: _307  and  _309
REMARK  122  A    between atoms: _309  and  _310
REMARK  123  A    between atoms: _309  and  _312
REMARK  124  A    between atoms: _312  and  _313
REMARK  125  A    between atoms: _323  and  _325
REMARK  126  A    between atoms: _325  and  _326
REMARK  127  A    between atoms: _325  and  _328
REMARK  128  A    between atoms: _328  and  _329
REMARK                            x       y       z     vdW  Elec       q    Type
REMARK                         _______ _______ _______ _____ _____    ______ ____
ROOT
ATOM      1  CA  ASP A   1      69.444  94.208  15.457  0.00  0.00    +0.144 C 
ENDROOT
BRANCH   1   2
ATOM      2  N   ASP A   1      68.136  94.674  15.025  0.00  0.00    -0.239 NA
ATOM      3  H   ASP A   1      68.082  95.538  14.449  0.00  0.00    +0.142 HD
ENDBRANCH   1   2
BRANCH   1   4
ATOM      4  C   ASP A   1      69.676  92.748  15.110  0.00  0.00    +0.225 C 
ATOM      5  O   ASP A   1      70.118  91.958  15.930  0.00  0.00    -0.287 OA
ENDBRANCH   1   4
BRANCH   1   6
ATOM      6  CB  ASP A   1      69.620  94.443  16.955  0.00  0.00    +0.139 C 
BRANCH   6   7
ATOM      7  CG  ASP A   1      70.042  95.871  17.264  0.00  0.00    +0.367 C 
ATOM      8  OD2 ASP A   1      69.174  96.658  17.705  0.00  0.00    -0.246 OA
ATOM      9  OD1 ASP A   1      71.236  96.203  17.044  0.00  0.00    -0.246 OA
ENDBRANCH   6   7
ENDBRANCH   1   6
TORSDOF 4
REMARK  Name = ../refined-set-2016/4ufk/4ufk_pocket.pdb
REMARK  128 active torsions:
REMARK  status: ('A' for Active; 'I' for Inactive)
REMARK    1  A    between atoms: _1  and  _3
REMARK    2  A    between atoms: _3  and  _4
REMARK    3  A    between atoms: _3  and  _6
REMARK    4  A    between atoms: _9  and  _11
REMARK    5  A    between atoms: _11  and  _12
REMARK    6  A    between atoms: _14  and  _16
REMARK    7  A    between atoms: _16  and  _17
REMARK    8  A    between atoms: _19  and  _21
REMARK    9  A    between atoms: _21  and  _22
REMARK   10  A    between atoms: _24  and  _26
REMARK   11  A    between atoms: _26  and  _27
REMARK   12  A    between atoms: _30  and  _32
REMARK   13  A    between atoms: _32  and  _33
REMARK   14  A    between atoms: _32  and  _35
REMARK   15  A    between atoms: _35  and  _36
REMARK   16  A    between atoms: _39  and  _41
REMARK   17  A    between atoms: _41  and  _42
REMARK   18  A    between atoms: _41  and  _44
REMARK   19  A    between atoms: _44  and  _45
REMARK   20  A    between atoms: _45  and  _46
REMARK   21  A    between atoms: _46  and  _47
REMARK   22  A    between atoms: _47  and  _48
REMARK   23  A    between atoms: _52  and  _54
REMARK   24  A    between atoms: _54  and  _55
REMARK   25  A    between atoms: _54  and  _57
REMARK   26  A    between atoms: _57  and  _58
REMARK   27  A    between atoms: _58  and  _59
REMARK   28  A    between atoms: _62  and  _64
REMARK   29  A    between atoms: _64  and  _65
REMARK   30  A    between atoms: _64  and  _67
REMARK   31  A    between atoms: _67  and  _68
REMARK   32  A    between atoms: _71  and  _73
REMARK   33  A    between atoms: _73  and  _74
REMARK   34  A    between atoms: _73  and  _76
REMARK   35  A    between atoms: _76  and  _77
REMARK   36  A    between atoms: _80  and  _82
REMARK   37  A    between atoms: _82  and  _83
REMARK   38  A    between atoms: _82  and  _85
REMARK   39  A    between atoms: _85  and  _86
REMARK   40  A    between atoms: _89  and  _91
REMARK   41  A    between atoms: _91  and  _92
REMARK   42  A    between atoms: _91  and  _94
REMARK   43  A    between atoms: _94  and  _95
REMARK   44  A    between atoms: _105  and  _107
REMARK   45  A    between atoms: _107  and  _108
REMARK   46  A    between atoms: _107  and  _110
REMARK   47  A    between atoms: _110  and  _111
REMARK   48  A    between atoms: _116  and  _118
REMARK   49  A    between atoms: _118  and  _119
REMARK   50  A    between atoms: _118  and  _121
REMARK   51  A    between atoms: _121  and  _122
REMARK   52  A    between atoms: _122  and  _123
REMARK   53  A    between atoms: _126  and  _128
REMARK   54  A    between atoms: _128  and  _129
REMARK   55  A    between atoms: _128  and  _131
REMARK   56  A    between atoms: _131  and  _132
REMARK   57  A    between atoms: _132  and  _133
REMARK   58  A    between atoms: _133  and  _134
REMARK   59  A    between atoms: _143  and  _145
REMARK   60  A    between atoms: _145  and  _146
REMARK   61  A    between atoms: _145  and  _148
REMARK   62  A    between atoms: _148  and  _149
REMARK   63  A    between atoms: _152  and  _154
REMARK   64  A    between atoms: _154  and  _155
REMARK   65  A    between atoms: _154  and  _157
REMARK   66  A    between atoms: _157  and  _158
REMARK   67  A    between atoms: _163  and  _165
REMARK   68  A    between atoms: _165  and  _166
REMARK   69  A    between atoms: _165  and  _168
REMARK   70  A    between atoms: _168  and  _169
REMARK   71  A    between atoms: _174  and  _175
REMARK   72  A    between atoms: _177  and  _179
REMARK   73  A    between atoms: _179  and  _180
REMARK   74  A    between atoms: _179  and  _182
REMARK   75  A    between atoms: _182  and  _183
REMARK   76  A    between atoms: _183  and  _184
REMARK   77  A    between atoms: _187  and  _189
REMARK   78  A    between atoms: _189  and  _190
REMARK   79  A    between atoms: _189  and  _192
REMARK   80  A    between atoms: _192  and  _193
REMARK   81  A    between atoms: _196  and  _198
REMARK   82  A    between atoms: _198  and  _199
REMARK   83  A    between atoms: _198  and  _201
REMARK   84  A    between atoms: _201  and  _202
REMARK   85  A    between atoms: _208  and  _210
REMARK   86  A    between atoms: _210  and  _211
REMARK   87  A    between atoms: _210  and  _213
REMARK   88  A    between atoms: _213  and  _214
REMARK   89  A    between atoms: _216  and  _218
REMARK   90  A    between atoms: _218  and  _219
REMARK   91  A    between atoms: _218  and  _221
REMARK   92  A    between atoms: _221  and  _222
REMARK   93  A    between atoms: _225  and  _227
REMARK   94  A    between atoms: _227  and  _228
REMARK   95  A    between atoms: _227  and  _230
REMARK   96  A    between atoms: _230  and  _231
REMARK   97  A    between atoms: _241  and  _243
REMARK   98  A    between atoms: _243  and  _244
REMARK   99  A    between atoms: _243  and  _246
REMARK  100  A    between atoms: _246  and  _247
REMARK  101  A    between atoms: _253  and  _254
REMARK  102  A    between atoms: _259  and  _261
REMARK  103  A    between atoms: _261  and  _262
REMARK  104  A    between atoms: _261  and  _264
REMARK  105  A    between atoms: _264  and  _265
REMARK  106  A    between atoms: _270  and  _271
REMARK  107  A    between atoms: _273  and  _275
REMARK  108  A    between atoms: _275  and  _276
REMARK  109  A    between atoms: _275  and  _278
REMARK  110  A    between atoms: _278  and  _279
REMARK  111  A    between atoms: _281  and  _283
REMARK  112  A    between atoms: _283  and  _284
REMARK  113  A    between atoms: _283  and  _286
REMARK  114  A    between atoms: _286  and  _287
REMARK  115  A    between atoms: _290  and  _292
REMARK  116  A    between atoms: _292  and  _293
REMARK  117  A    between atoms: _292  and  _295
REMARK  118  A    between atoms: _295  and  _296
REMARK  119  A    between atoms: _296  and  _297
REMARK  120  A    between atoms: _297  and  _298
REMARK  121  A    between atoms: _307  and  _309
REMARK  122  A    between atoms: _309  and  _310
REMARK  123  A    between atoms: _309  and  _312
REMARK  124  A    between atoms: _312  and  _313
REMARK  125  A    between atoms: _323  and  _325
REMARK  126  A    between atoms: _325  and  _326
REMARK  127  A    between atoms: _325  and  _328
REMARK  128  A    between atoms: _328  and  _329
REMARK                            x       y       z     vdW  Elec       q    Type
REMARK                         _______ _______ _______ _____ _____    ______ ____
ROOT
ATOM      1  C   HIS A   1      75.212  92.454  11.010  0.00  0.00    +0.239 C 
ATOM      2  N   TYR A   2      76.489  92.814  10.982  0.00  0.00    -0.298 N 
ATOM      3  H   TYR A   2      76.803  93.570  11.624  0.00  0.00    +0.150 HD
ATOM      4  O   HIS A   1      74.724  91.633  10.244  0.00  0.00    -0.274 OA
ENDROOT
BRANCH   1   5
ATOM      5  CA  HIS A   1      74.357  93.120  12.080  0.00  0.00    +0.151 C 
BRANCH   5   6
ATOM      6  N   HIS A   1      73.106  93.650  11.550  0.00  0.00    -0.238 NA
ATOM      7  H   HIS A   1      72.338  92.987  11.322  0.00  0.00    +0.142 HD
ENDBRANCH   5   6
BRANCH   5   8
ATOM      8  CB  HIS A   1      74.085  92.114  13.198  0.00  0.00    +0.074 C 
BRANCH   8   9
ATOM      9  CG  HIS A   1      73.615  92.736  14.470  0.00  0.00    +0.082 A 
ATOM     10  ND1 HIS A   1      73.609  92.059  15.670  0.00  0.00    -0.227 NA
ATOM     11  CE1 HIS A   1      73.154  92.855  16.620  0.00  0.00    +0.199 A 
ATOM     12  NE2 HIS A   1      72.859  94.022  16.079  0.00  0.00    -0.221 NA
ATOM     13  CD2 HIS A   1      73.143  93.976  14.736  0.00  0.00    +0.115 A 
ENDBRANCH   8   9
ENDBRANCH   5   8
ENDBRANCH   1   5
BRANCH   2  14
ATOM     14  CA  TYR A   2      77.477  92.202  10.094  0.00  0.00    +0.141 C 
BRANCH  14  15
ATOM     15  C   TYR A   2      77.020  92.104   8.637  0.00  0.00    +0.227 C 
ATOM     16  O   TYR A   2      77.003  91.028   8.058  0.00  0.00    -0.286 OA
ENDBRANCH  14  15
BRANCH  14  17
ATOM     17  CB  TYR A   2      77.860  90.827  10.642  0.00  0.00    +0.054 C 
BRANCH  17  18
ATOM     18  CG  TYR A   2      78.378  90.965  12.048  0.00  0.00    -0.020 A 
ATOM     19  CD2 TYR A   2      77.527  90.830  13.146  0.00  0.00    -0.001 A 
ATOM     20  CE2 TYR A   2      77.985  91.001  14.429  0.00  0.00    +0.036 A 
ATOM     21  CZ  TYR A   2      79.303  91.320  14.640  0.00  0.00    +0.134 A 
ATOM     22  CE1 TYR A   2      80.165  91.476  13.570  0.00  0.00    +0.036 A 
ATOM     23  CD1 TYR A   2      79.695  91.303  12.281  0.00  0.00    -0.001 A 
BRANCH  21  24
ATOM     24  OH  TYR A   2      79.766  91.492  15.921  0.00  0.00    -0.506 OA
ATOM     25  HH  TYR A   2      79.266  92.228  16.355  0.00  0.00    +0.292 HD
ENDBRANCH  21  24
ENDBRANCH  17  18
ENDBRANCH  14  17
ENDBRANCH   2  14
TORSDOF 9
REMARK  Name = ../refined-set-2016/4ufk/4ufk_pocket.pdb
REMARK  128 active torsions:
REMARK  status: ('A' for Active; 'I' for Inactive)
REMARK    1  A    between atoms: _1  and  _3
REMARK    2  A    between atoms: _3  and  _4
REMARK    3  A    between atoms: _3  and  _6
REMARK    4  A    between atoms: _9  and  _11
REMARK    5  A    between atoms: _11  and  _12
REMARK    6  A    between atoms: _14  and  _16
REMARK    7  A    between atoms: _16  and  _17
REMARK    8  A    between atoms: _19  and  _21
REMARK    9  A    between atoms: _21  and  _22
REMARK   10  A    between atoms: _24  and  _26
REMARK   11  A    between atoms: _26  and  _27
REMARK   12  A    between atoms: _30  and  _32
REMARK   13  A    between atoms: _32  and  _33
REMARK   14  A    between atoms: _32  and  _35
REMARK   15  A    between atoms: _35  and  _36
REMARK   16  A    between atoms: _39  and  _41
REMARK   17  A    between atoms: _41  and  _42
REMARK   18  A    between atoms: _41  and  _44
REMARK   19  A    between atoms: _44  and  _45
REMARK   20  A    between atoms: _45  and  _46
REMARK   21  A    between atoms: _46  and  _47
REMARK   22  A    between atoms: _47  and  _48
REMARK   23  A    between atoms: _52  and  _54
REMARK   24  A    between atoms: _54  and  _55
REMARK   25  A    between atoms: _54  and  _57
REMARK   26  A    between atoms: _57  and  _58
REMARK   27  A    between atoms: _58  and  _59
REMARK   28  A    between atoms: _62  and  _64
REMARK   29  A    between atoms: _64  and  _65
REMARK   30  A    between atoms: _64  and  _67
REMARK   31  A    between atoms: _67  and  _68
REMARK   32  A    between atoms: _71  and  _73
REMARK   33  A    between atoms: _73  and  _74
REMARK   34  A    between atoms: _73  and  _76
REMARK   35  A    between atoms: _76  and  _77
REMARK   36  A    between atoms: _80  and  _82
REMARK   37  A    between atoms: _82  and  _83
REMARK   38  A    between atoms: _82  and  _85
REMARK   39  A    between atoms: _85  and  _86
REMARK   40  A    between atoms: _89  and  _91
REMARK   41  A    between atoms: _91  and  _92
REMARK   42  A    between atoms: _91  and  _94
REMARK   43  A    between atoms: _94  and  _95
REMARK   44  A    between atoms: _105  and  _107
REMARK   45  A    between atoms: _107  and  _108
REMARK   46  A    between atoms: _107  and  _110
REMARK   47  A    between atoms: _110  and  _111
REMARK   48  A    between atoms: _116  and  _118
REMARK   49  A    between atoms: _118  and  _119
REMARK   50  A    between atoms: _118  and  _121
REMARK   51  A    between atoms: _121  and  _122
REMARK   52  A    between atoms: _122  and  _123
REMARK   53  A    between atoms: _126  and  _128
REMARK   54  A    between atoms: _128  and  _129
REMARK   55  A    between atoms: _128  and  _131
REMARK   56  A    between atoms: _131  and  _132
REMARK   57  A    between atoms: _132  and  _133
REMARK   58  A    between atoms: _133  and  _134
REMARK   59  A    between atoms: _143  and  _145
REMARK   60  A    between atoms: _145  and  _146
REMARK   61  A    between atoms: _145  and  _148
REMARK   62  A    between atoms: _148  and  _149
REMARK   63  A    between atoms: _152  and  _154
REMARK   64  A    between atoms: _154  and  _155
REMARK   65  A    between atoms: _154  and  _157
REMARK   66  A    between atoms: _157  and  _158
REMARK   67  A    between atoms: _163  and  _165
REMARK   68  A    between atoms: _165  and  _166
REMARK   69  A    between atoms: _165  and  _168
REMARK   70  A    between atoms: _168  and  _169
REMARK   71  A    between atoms: _174  and  _175
REMARK   72  A    between atoms: _177  and  _179
REMARK   73  A    between atoms: _179  and  _180
REMARK   74  A    between atoms: _179  and  _182
REMARK   75  A    between atoms: _182  and  _183
REMARK   76  A    between atoms: _183  and  _184
REMARK   77  A    between atoms: _187  and  _189
REMARK   78  A    between atoms: _189  and  _190
REMARK   79  A    between atoms: _189  and  _192
REMARK   80  A    between atoms: _192  and  _193
REMARK   81  A    between atoms: _196  and  _198
REMARK   82  A    between atoms: _198  and  _199
REMARK   83  A    between atoms: _198  and  _201
REMARK   84  A    between atoms: _201  and  _202
REMARK   85  A    between atoms: _208  and  _210
REMARK   86  A    between atoms: _210  and  _211
REMARK   87  A    between atoms: _210  and  _213
REMARK   88  A    between atoms: _213  and  _214
REMARK   89  A    between atoms: _216  and  _218
REMARK   90  A    between atoms: _218  and  _219
REMARK   91  A    between atoms: _218  and  _221
REMARK   92  A    between atoms: _221  and  _222
REMARK   93  A    between atoms: _225  and  _227
REMARK   94  A    between atoms: _227  and  _228
REMARK   95  A    between atoms: _227  and  _230
REMARK   96  A    between atoms: _230  and  _231
REMARK   97  A    between atoms: _241  and  _243
REMARK   98  A    between atoms: _243  and  _244
REMARK   99  A    between atoms: _243  and  _246
REMARK  100  A    between atoms: _246  and  _247
REMARK  101  A    between atoms: _253  and  _254
REMARK  102  A    between atoms: _259  and  _261
REMARK  103  A    between atoms: _261  and  _262
REMARK  104  A    between atoms: _261  and  _264
REMARK  105  A    between atoms: _264  and  _265
REMARK  106  A    between atoms: _270  and  _271
REMARK  107  A    between atoms: _273  and  _275
REMARK  108  A    between atoms: _275  and  _276
REMARK  109  A    between atoms: _275  and  _278
REMARK  110  A    between atoms: _278  and  _279
REMARK  111  A    between atoms: _281  and  _283
REMARK  112  A    between atoms: _283  and  _284
REMARK  113  A    between atoms: _283  and  _286
REMARK  114  A    between atoms: _286  and  _287
REMARK  115  A    between atoms: _290  and  _292
REMARK  116  A    between atoms: _292  and  _293
REMARK  117  A    between atoms: _292  and  _295
REMARK  118  A    between atoms: _295  and  _296
REMARK  119  A    between atoms: _296  and  _297
REMARK  120  A    between atoms: _297  and  _298
REMARK  121  A    between atoms: _307  and  _309
REMARK  122  A    between atoms: _309  and  _310
REMARK  123  A    between atoms: _309  and  _312
REMARK  124  A    between atoms: _312  and  _313
REMARK  125  A    between atoms: _323  and  _325
REMARK  126  A    between atoms: _325  and  _326
REMARK  127  A    between atoms: _325  and  _328
REMARK  128  A    between atoms: _328  and  _329
REMARK                            x       y       z     vdW  Elec       q    Type
REMARK                         _______ _______ _______ _____ _____    ______ ____
ROOT
ATOM      1  CA  PHE A   3      83.878  94.410  13.666  0.00  0.00    +0.153 C 
ENDROOT
BRANCH   1   2
ATOM      2  C   PHE A   3      84.028  93.027  14.317  0.00  0.00    +0.241 C 
ATOM      3  N   SER A   4      83.997  92.949  15.652  0.00  0.00    -0.295 N 
ATOM      4  H   SER A   4      83.891  93.821  16.209  0.00  0.00    +0.150 HD
ATOM      5  O   PHE A   3      84.191  92.043  13.599  0.00  0.00    -0.273 OA
BRANCH   3   6
ATOM      6  CA  SER A   4      84.109  91.662  16.350  0.00  0.00    +0.178 C 
BRANCH   6   7
ATOM      7  C   SER A   4      85.352  90.839  15.941  0.00  0.00    +0.243 C 
ATOM      8  O   SER A   4      85.318  89.610  15.907  0.00  0.00    -0.273 OA
ATOM      9  N   THR A   5      86.451  91.525  15.658  0.00  0.00    -0.296 N 
ATOM     10  H   THR A   5      86.437  92.559  15.766  0.00  0.00    +0.150 HD
BRANCH   9  11
ATOM     11  CA  THR A   5      87.680  90.884  15.201  0.00  0.00    +0.164 C 
BRANCH  11  12
ATOM     12  C   THR A   5      88.842  91.265  16.120  0.00  0.00    +0.229 C 
ATOM     13  O   THR A   5      88.846  92.349  16.681  0.00  0.00    -0.286 OA
ENDBRANCH  11  12
BRANCH  11  14
ATOM     14  CB  THR A   5      87.987  91.287  13.728  0.00  0.00    +0.136 C 
ATOM     15  CG2 THR A   5      89.157  90.527  13.183  0.00  0.00    +0.034 C 
BRANCH  14  16
ATOM     16  OG1 THR A   5      86.850  90.990  12.909  0.00  0.00    -0.382 OA
ATOM     17  HG1 THR A   5      86.067  91.500  13.236  0.00  0.00    +0.210 HD
ENDBRANCH  14  16
ENDBRANCH  11  14
ENDBRANCH   9  11
ENDBRANCH   6   7
BRANCH   6  18
ATOM     18  CB  SER A   4      82.839  90.833  16.112  0.00  0.00    +0.166 C 
BRANCH  18  19
ATOM     19  OG  SER A   4      82.861  89.588  16.779  0.00  0.00    -0.380 OA
ATOM     20  H   SER A   4      82.021  89.099  16.590  0.00  0.00    +0.211 HD
ENDBRANCH  18  19
ENDBRANCH   6  18
ENDBRANCH   3   6
ENDBRANCH   1   2
BRANCH   1  23
ATOM     21  C   ASP A   2      81.452  94.779  13.932  0.00  0.00    +0.241 C 
ATOM     22  O   ASP A   2      81.492  94.767  15.168  0.00  0.00    -0.273 OA
ATOM     23  N   PHE A   3      82.519  94.612  13.155  0.00  0.00    -0.297 N 
ATOM     24  H   PHE A   3      82.381  94.626  12.124  0.00  0.00    +0.150 HD
BRANCH  21  25
ATOM     25  CA  ASP A   2      80.123  95.016  13.213  0.00  0.00    +0.160 C 
BRANCH  25  27
ATOM     26  C   GLU A   1      77.831  95.189  14.051  0.00  0.00    +0.238 C 
ATOM     27  N   ASP A   2      79.127  95.432  14.197  0.00  0.00    -0.297 N 
ATOM     28  H   ASP A   2      79.447  95.939  15.047  0.00  0.00    +0.150 HD
ATOM     29  O   GLU A   1      77.369  94.560  13.104  0.00  0.00    -0.274 OA
BRANCH  26  30
ATOM     30  CA  GLU A   1      76.930  95.729  15.143  0.00  0.00    +0.145 C 
BRANCH  30  31
ATOM     31  N   GLU A   1      75.871  96.546  14.576  0.00  0.00    -0.238 NA
ATOM     32  H   GLU A   1      75.595  96.399  13.584  0.00  0.00    +0.142 HD
ENDBRANCH  30  31
BRANCH  30  33
ATOM     33  CB  GLU A   1      76.379  94.563  15.981  0.00  0.00    +0.038 C 
BRANCH  33  34
ATOM     34  CG  GLU A   1      77.414  94.117  17.036  0.00  0.00    +0.116 C 
BRANCH  34  35
ATOM     35  CD  GLU A   1      77.022  92.868  17.799  0.00  0.00    +0.365 C 
ATOM     36  OE2 GLU A   1      76.018  92.910  18.540  0.00  0.00    -0.246 OA
ATOM     37  OE1 GLU A   1      77.740  91.863  17.669  0.00  0.00    -0.246 OA
ENDBRANCH  34  35
ENDBRANCH  33  34
ENDBRANCH  30  33
ENDBRANCH  26  30
ENDBRANCH  25  27
BRANCH  25  38
ATOM     38  CB  ASP A   2      80.267  96.077  12.120  0.00  0.00    +0.143 C 
BRANCH  38  39
ATOM     39  CG  ASP A   2      80.212  95.495  10.710  0.00  0.00    +0.367 C 
ATOM     40  OD2 ASP A   2      80.570  94.319  10.536  0.00  0.00    -0.246 OA
ATOM     41  OD1 ASP A   2      79.826  96.238   9.782  0.00  0.00    -0.246 OA
ENDBRANCH  38  39
ENDBRANCH  25  38
ENDBRANCH  21  25
ENDBRANCH   1  23
BRANCH   1  42
ATOM     42  CB  PHE A   3      84.275  95.544  14.640  0.00  0.00    +0.055 C 
BRANCH  42  43
ATOM     43  CG  PHE A   3      85.700  95.478  15.116  0.00  0.00    -0.020 A 
ATOM     44  CD2 PHE A   3      85.985  95.266  16.460  0.00  0.00    -0.004 A 
ATOM     45  CE2 PHE A   3      87.306  95.225  16.917  0.00  0.00    -0.000 A 
ATOM     46  CZ  PHE A   3      88.357  95.411  16.011  0.00  0.00    -0.000 A 
ATOM     47  CE1 PHE A   3      88.074  95.639  14.662  0.00  0.00    -0.000 A 
ATOM     48  CD1 PHE A   3      86.751  95.673  14.229  0.00  0.00    -0.004 A 
ENDBRANCH  42  43
ENDBRANCH   1  42
TORSDOF 21
REMARK  Name = ../refined-set-2016/4ufk/4ufk_pocket.pdb
REMARK  128 active torsions:
REMARK  status: ('A' for Active; 'I' for Inactive)
REMARK    1  A    between atoms: _1  and  _3
REMARK    2  A    between atoms: _3  and  _4
REMARK    3  A    between atoms: _3  and  _6
REMARK    4  A    between atoms: _9  and  _11
REMARK    5  A    between atoms: _11  and  _12
REMARK    6  A    between atoms: _14  and  _16
REMARK    7  A    between atoms: _16  and  _17
REMARK    8  A    between atoms: _19  and  _21
REMARK    9  A    between atoms: _21  and  _22
REMARK   10  A    between atoms: _24  and  _26
REMARK   11  A    between atoms: _26  and  _27
REMARK   12  A    between atoms: _30  and  _32
REMARK   13  A    between atoms: _32  and  _33
REMARK   14  A    between atoms: _32  and  _35
REMARK   15  A    between atoms: _35  and  _36
REMARK   16  A    between atoms: _39  and  _41
REMARK   17  A    between atoms: _41  and  _42
REMARK   18  A    between atoms: _41  and  _44
REMARK   19  A    between atoms: _44  and  _45
REMARK   20  A    between atoms: _45  and  _46
REMARK   21  A    between atoms: _46  and  _47
REMARK   22  A    between atoms: _47  and  _48
REMARK   23  A    between atoms: _52  and  _54
REMARK   24  A    between atoms: _54  and  _55
REMARK   25  A    between atoms: _54  and  _57
REMARK   26  A    between atoms: _57  and  _58
REMARK   27  A    between atoms: _58  and  _59
REMARK   28  A    between atoms: _62  and  _64
REMARK   29  A    between atoms: _64  and  _65
REMARK   30  A    between atoms: _64  and  _67
REMARK   31  A    between atoms: _67  and  _68
REMARK   32  A    between atoms: _71  and  _73
REMARK   33  A    between atoms: _73  and  _74
REMARK   34  A    between atoms: _73  and  _76
REMARK   35  A    between atoms: _76  and  _77
REMARK   36  A    between atoms: _80  and  _82
REMARK   37  A    between atoms: _82  and  _83
REMARK   38  A    between atoms: _82  and  _85
REMARK   39  A    between atoms: _85  and  _86
REMARK   40  A    between atoms: _89  and  _91
REMARK   41  A    between atoms: _91  and  _92
REMARK   42  A    between atoms: _91  and  _94
REMARK   43  A    between atoms: _94  and  _95
REMARK   44  A    between atoms: _105  and  _107
REMARK   45  A    between atoms: _107  and  _108
REMARK   46  A    between atoms: _107  and  _110
REMARK   47  A    between atoms: _110  and  _111
REMARK   48  A    between atoms: _116  and  _118
REMARK   49  A    between atoms: _118  and  _119
REMARK   50  A    between atoms: _118  and  _121
REMARK   51  A    between atoms: _121  and  _122
REMARK   52  A    between atoms: _122  and  _123
REMARK   53  A    between atoms: _126  and  _128
REMARK   54  A    between atoms: _128  and  _129
REMARK   55  A    between atoms: _128  and  _131
REMARK   56  A    between atoms: _131  and  _132
REMARK   57  A    between atoms: _132  and  _133
REMARK   58  A    between atoms: _133  and  _134
REMARK   59  A    between atoms: _143  and  _145
REMARK   60  A    between atoms: _145  and  _146
REMARK   61  A    between atoms: _145  and  _148
REMARK   62  A    between atoms: _148  and  _149
REMARK   63  A    between atoms: _152  and  _154
REMARK   64  A    between atoms: _154  and  _155
REMARK   65  A    between atoms: _154  and  _157
REMARK   66  A    between atoms: _157  and  _158
REMARK   67  A    between atoms: _163  and  _165
REMARK   68  A    between atoms: _165  and  _166
REMARK   69  A    between atoms: _165  and  _168
REMARK   70  A    between atoms: _168  and  _169
REMARK   71  A    between atoms: _174  and  _175
REMARK   72  A    between atoms: _177  and  _179
REMARK   73  A    between atoms: _179  and  _180
REMARK   74  A    between atoms: _179  and  _182
REMARK   75  A    between atoms: _182  and  _183
REMARK   76  A    between atoms: _183  and  _184
REMARK   77  A    between atoms: _187  and  _189
REMARK   78  A    between atoms: _189  and  _190
REMARK   79  A    between atoms: _189  and  _192
REMARK   80  A    between atoms: _192  and  _193
REMARK   81  A    between atoms: _196  and  _198
REMARK   82  A    between atoms: _198  and  _199
REMARK   83  A    between atoms: _198  and  _201
REMARK   84  A    between atoms: _201  and  _202
REMARK   85  A    between atoms: _208  and  _210
REMARK   86  A    between atoms: _210  and  _211
REMARK   87  A    between atoms: _210  and  _213
REMARK   88  A    between atoms: _213  and  _214
REMARK   89  A    between atoms: _216  and  _218
REMARK   90  A    between atoms: _218  and  _219
REMARK   91  A    between atoms: _218  and  _221
REMARK   92  A    between atoms: _221  and  _222
REMARK   93  A    between atoms: _225  and  _227
REMARK   94  A    between atoms: _227  and  _228
REMARK   95  A    between atoms: _227  and  _230
REMARK   96  A    between atoms: _230  and  _231
REMARK   97  A    between atoms: _241  and  _243
REMARK   98  A    between atoms: _243  and  _244
REMARK   99  A    between atoms: _243  and  _246
REMARK  100  A    between atoms: _246  and  _247
REMARK  101  A    between atoms: _253  and  _254
REMARK  102  A    between atoms: _259  and  _261
REMARK  103  A    between atoms: _261  and  _262
REMARK  104  A    between atoms: _261  and  _264
REMARK  105  A    between atoms: _264  and  _265
REMARK  106  A    between atoms: _270  and  _271
REMARK  107  A    between atoms: _273  and  _275
REMARK  108  A    between atoms: _275  and  _276
REMARK  109  A    between atoms: _275  and  _278
REMARK  110  A    between atoms: _278  and  _279
REMARK  111  A    between atoms: _281  and  _283
REMARK  112  A    between atoms: _283  and  _284
REMARK  113  A    between atoms: _283  and  _286
REMARK  114  A    between atoms: _286  and  _287
REMARK  115  A    between atoms: _290  and  _292
REMARK  116  A    between atoms: _292  and  _293
REMARK  117  A    between atoms: _292  and  _295
REMARK  118  A    between atoms: _295  and  _296
REMARK  119  A    between atoms: _296  and  _297
REMARK  120  A    between atoms: _297  and  _298
REMARK  121  A    between atoms: _307  and  _309
REMARK  122  A    between atoms: _309  and  _310
REMARK  123  A    between atoms: _309  and  _312
REMARK  124  A    between atoms: _312  and  _313
REMARK  125  A    between atoms: _323  and  _325
REMARK  126  A    between atoms: _325  and  _326
REMARK  127  A    between atoms: _325  and  _328
REMARK  128  A    between atoms: _328  and  _329
REMARK                            x       y       z     vdW  Elec       q    Type
REMARK                         _______ _______ _______ _____ _____    ______ ____
ROOT
ATOM      1  CA  TRP A   1      81.417  95.021  19.069  0.00  0.00    +0.149 C 
ENDROOT
BRANCH   1   2
ATOM      2  C   TRP A   1      82.879  94.587  19.137  0.00  0.00    +0.239 C 
ATOM      3  N   ASN A   2      83.613  94.915  20.203  0.00  0.00    -0.298 N 
ATOM      4  H   ASN A   2      84.619  94.651  20.196  0.00  0.00    +0.150 HD
ATOM      5  O   TRP A   1      83.343  93.952  18.208  0.00  0.00    -0.274 OA
BRANCH   3   6
ATOM      6  CA  ASN A   2      83.105  95.618  21.377  0.00  0.00    +0.146 C 
BRANCH   6   7
ATOM      7  C   ASN A   2      83.960  96.846  21.688  0.00  0.00    +0.227 C 
ATOM      8  O   ASN A   2      84.968  97.089  21.030  0.00  0.00    -0.286 OA
ENDBRANCH   6   7
BRANCH   6   9
ATOM      9  CB  ASN A   2      83.061  94.675  22.597  0.00  0.00    +0.112 C 
BRANCH   9  10
ATOM     10  CG  ASN A   2      84.397  93.986  22.858  0.00  0.00    +0.222 C 
ATOM     11  OD1 ASN A   2      85.340  94.610  23.319  0.00  0.00    -0.275 OA
ATOM     12  ND2 ASN A   2      84.471  92.693  22.571  0.00  0.00    -0.329 N 
ATOM     13 HD21 ASN A   2      85.356  92.173  22.738  0.00  0.00    +0.145 HD
ATOM     14 HD22 ASN A   2      83.644  92.199  22.179  0.00  0.00    +0.145 HD
ENDBRANCH   9  10
ENDBRANCH   6   9
ENDBRANCH   3   6
ENDBRANCH   1   2
BRANCH   1  15
ATOM     15  N   TRP A   1      81.297  95.898  17.920  0.00  0.00    -0.238 NA
ATOM     16  H   TRP A   1      81.118  95.486  16.982  0.00  0.00    +0.142 HD
ENDBRANCH   1  15
BRANCH   1  17
ATOM     17  CB  TRP A   1      80.502  93.798  18.962  0.00  0.00    +0.054 C 
BRANCH  17  18
ATOM     18  CG  TRP A   1      80.487  92.995  20.244  0.00  0.00    -0.002 A 
ATOM     19  CD1 TRP A   1      79.704  93.220  21.335  0.00  0.00    +0.068 A 
ATOM     20  NE1 TRP A   1      79.982  92.305  22.322  0.00  0.00    -0.352 N 
ATOM     21  HE1 TRP A   1      79.516  92.256  23.251  0.00  0.00    +0.166 HD
ATOM     22  CE2 TRP A   1      80.972  91.469  21.882  0.00  0.00    +0.056 A 
ATOM     23  CZ2 TRP A   1      81.584  90.383  22.517  0.00  0.00    +0.017 A 
ATOM     24  CH2 TRP A   1      82.556  89.717  21.828  0.00  0.00    +0.001 A 
ATOM     25  CZ3 TRP A   1      82.925  90.101  20.523  0.00  0.00    +0.000 A 
ATOM     26  CE3 TRP A   1      82.316  91.168  19.890  0.00  0.00    +0.001 A 
ATOM     27  CD2 TRP A   1      81.319  91.875  20.574  0.00  0.00    +0.013 A 
ENDBRANCH  17  18
ENDBRANCH   1  17
TORSDOF 8
REMARK  Name = ../refined-set-2016/4ufk/4ufk_pocket.pdb
REMARK  128 active torsions:
REMARK  status: ('A' for Active; 'I' for Inactive)
REMARK    1  A    between atoms: _1  and  _3
REMARK    2  A    between atoms: _3  and  _4
REMARK    3  A    between atoms: _3  and  _6
REMARK    4  A    between atoms: _9  and  _11
REMARK    5  A    between atoms: _11  and  _12
REMARK    6  A    between atoms: _14  and  _16
REMARK    7  A    between atoms: _16  and  _17
REMARK    8  A    between atoms: _19  and  _21
REMARK    9  A    between atoms: _21  and  _22
REMARK   10  A    between atoms: _24  and  _26
REMARK   11  A    between atoms: _26  and  _27
REMARK   12  A    between atoms: _30  and  _32
REMARK   13  A    between atoms: _32  and  _33
REMARK   14  A    between atoms: _32  and  _35
REMARK   15  A    between atoms: _35  and  _36
REMARK   16  A    between atoms: _39  and  _41
REMARK   17  A    between atoms: _41  and  _42
REMARK   18  A    between atoms: _41  and  _44
REMARK   19  A    between atoms: _44  and  _45
REMARK   20  A    between atoms: _45  and  _46
REMARK   21  A    between atoms: _46  and  _47
REMARK   22  A    between atoms: _47  and  _48
REMARK   23  A    between atoms: _52  and  _54
REMARK   24  A    between atoms: _54  and  _55
REMARK   25  A    between atoms: _54  and  _57
REMARK   26  A    between atoms: _57  and  _58
REMARK   27  A    between atoms: _58  and  _59
REMARK   28  A    between atoms: _62  and  _64
REMARK   29  A    between atoms: _64  and  _65
REMARK   30  A    between atoms: _64  and  _67
REMARK   31  A    between atoms: _67  and  _68
REMARK   32  A    between atoms: _71  and  _73
REMARK   33  A    between atoms: _73  and  _74
REMARK   34  A    between atoms: _73  and  _76
REMARK   35  A    between atoms: _76  and  _77
REMARK   36  A    between atoms: _80  and  _82
REMARK   37  A    between atoms: _82  and  _83
REMARK   38  A    between atoms: _82  and  _85
REMARK   39  A    between atoms: _85  and  _86
REMARK   40  A    between atoms: _89  and  _91
REMARK   41  A    between atoms: _91  and  _92
REMARK   42  A    between atoms: _91  and  _94
REMARK   43  A    between atoms: _94  and  _95
REMARK   44  A    between atoms: _105  and  _107
REMARK   45  A    between atoms: _107  and  _108
REMARK   46  A    between atoms: _107  and  _110
REMARK   47  A    between atoms: _110  and  _111
REMARK   48  A    between atoms: _116  and  _118
REMARK   49  A    between atoms: _118  and  _119
REMARK   50  A    between atoms: _118  and  _121
REMARK   51  A    between atoms: _121  and  _122
REMARK   52  A    between atoms: _122  and  _123
REMARK   53  A    between atoms: _126  and  _128
REMARK   54  A    between atoms: _128  and  _129
REMARK   55  A    between atoms: _128  and  _131
REMARK   56  A    between atoms: _131  and  _132
REMARK   57  A    between atoms: _132  and  _133
REMARK   58  A    between atoms: _133  and  _134
REMARK   59  A    between atoms: _143  and  _145
REMARK   60  A    between atoms: _145  and  _146
REMARK   61  A    between atoms: _145  and  _148
REMARK   62  A    between atoms: _148  and  _149
REMARK   63  A    between atoms: _152  and  _154
REMARK   64  A    between atoms: _154  and  _155
REMARK   65  A    between atoms: _154  and  _157
REMARK   66  A    between atoms: _157  and  _158
REMARK   67  A    between atoms: _163  and  _165
REMARK   68  A    between atoms: _165  and  _166
REMARK   69  A    between atoms: _165  and  _168
REMARK   70  A    between atoms: _168  and  _169
REMARK   71  A    between atoms: _174  and  _175
REMARK   72  A    between atoms: _177  and  _179
REMARK   73  A    between atoms: _179  and  _180
REMARK   74  A    between atoms: _179  and  _182
REMARK   75  A    between atoms: _182  and  _183
REMARK   76  A    between atoms: _183  and  _184
REMARK   77  A    between atoms: _187  and  _189
REMARK   78  A    between atoms: _189  and  _190
REMARK   79  A    between atoms: _189  and  _192
REMARK   80  A    between atoms: _192  and  _193
REMARK   81  A    between atoms: _196  and  _198
REMARK   82  A    between atoms: _198  and  _199
REMARK   83  A    between atoms: _198  and  _201
REMARK   84  A    between atoms: _201  and  _202
REMARK   85  A    between atoms: _208  and  _210
REMARK   86  A    between atoms: _210  and  _211
REMARK   87  A    between atoms: _210  and  _213
REMARK   88  A    between atoms: _213  and  _214
REMARK   89  A    between atoms: _216  and  _218
REMARK   90  A    between atoms: _218  and  _219
REMARK   91  A    between atoms: _218  and  _221
REMARK   92  A    between atoms: _221  and  _222
REMARK   93  A    between atoms: _225  and  _227
REMARK   94  A    between atoms: _227  and  _228
REMARK   95  A    between atoms: _227  and  _230
REMARK   96  A    between atoms: _230  and  _231
REMARK   97  A    between atoms: _241  and  _243
REMARK   98  A    between atoms: _243  and  _244
REMARK   99  A    between atoms: _243  and  _246
REMARK  100  A    between atoms: _246  and  _247
REMARK  101  A    between atoms: _253  and  _254
REMARK  102  A    between atoms: _259  and  _261
REMARK  103  A    between atoms: _261  and  _262
REMARK  104  A    between atoms: _261  and  _264
REMARK  105  A    between atoms: _264  and  _265
REMARK  106  A    between atoms: _270  and  _271
REMARK  107  A    between atoms: _273  and  _275
REMARK  108  A    between atoms: _275  and  _276
REMARK  109  A    between atoms: _275  and  _278
REMARK  110  A    between atoms: _278  and  _279
REMARK  111  A    between atoms: _281  and  _283
REMARK  112  A    between atoms: _283  and  _284
REMARK  113  A    between atoms: _283  and  _286
REMARK  114  A    between atoms: _286  and  _287
REMARK  115  A    between atoms: _290  and  _292
REMARK  116  A    between atoms: _292  and  _293
REMARK  117  A    between atoms: _292  and  _295
REMARK  118  A    between atoms: _295  and  _296
REMARK  119  A    between atoms: _296  and  _297
REMARK  120  A    between atoms: _297  and  _298
REMARK  121  A    between atoms: _307  and  _309
REMARK  122  A    between atoms: _309  and  _310
REMARK  123  A    between atoms: _309  and  _312
REMARK  124  A    between atoms: _312  and  _313
REMARK  125  A    between atoms: _323  and  _325
REMARK  126  A    between atoms: _325  and  _326
REMARK  127  A    between atoms: _325  and  _328
REMARK  128  A    between atoms: _328  and  _329
REMARK                            x       y       z     vdW  Elec       q    Type
REMARK                         _______ _______ _______ _____ _____    ______ ____
ROOT
ATOM      1  CA  TYR A   2      86.314  86.281  20.927  0.00  0.00    +0.141 C 
ENDROOT
BRANCH   1   4
ATOM      2  C   PRO A   1      85.342  85.050  22.815  0.00  0.00    +0.239 C 
ATOM      3  O   PRO A   1      84.996  86.069  23.400  0.00  0.00    -0.274 OA
ATOM      4  N   TYR A   2      85.975  85.055  21.647  0.00  0.00    -0.298 N 
ATOM      5  H   TYR A   2      86.242  84.143  21.225  0.00  0.00    +0.150 HD
BRANCH   2  10
ATOM      6  N   PRO A   1      85.334  83.570  24.847  0.00  0.00    -0.210 NA
ATOM      7  CD  PRO A   1      84.231  82.913  25.578  0.00  0.00    +0.089 C 
ATOM      8  CG  PRO A   1      83.320  82.431  24.485  0.00  0.00    +0.021 C 
ATOM      9  CB  PRO A   1      83.562  83.352  23.316  0.00  0.00    +0.028 C 
ATOM     10  CA  PRO A   1      85.058  83.677  23.408  0.00  0.00    +0.149 C 
ENDBRANCH   2  10
ENDBRANCH   1   4
BRANCH   1  11
ATOM     11  C   TYR A   2      87.247  87.178  21.746  0.00  0.00    +0.227 C 
ATOM     12  O   TYR A   2      87.089  88.395  21.771  0.00  0.00    -0.286 OA
ENDBRANCH   1  11
BRANCH   1  13
ATOM     13  CB  TYR A   2      85.053  87.059  20.538  0.00  0.00    +0.054 C 
BRANCH  13  14
ATOM     14  CG  TYR A   2      84.050  86.311  19.676  0.00  0.00    -0.020 A 
ATOM     15  CD2 TYR A   2      82.895  85.751  20.230  0.00  0.00    -0.001 A 
ATOM     16  CE2 TYR A   2      81.973  85.087  19.449  0.00  0.00    +0.036 A 
ATOM     17  CZ  TYR A   2      82.187  84.984  18.087  0.00  0.00    +0.134 A 
ATOM     18  CE1 TYR A   2      83.310  85.538  17.516  0.00  0.00    +0.036 A 
ATOM     19  CD1 TYR A   2      84.231  86.200  18.306  0.00  0.00    -0.001 A 
BRANCH  17  20
ATOM     20  OH  TYR A   2      81.279  84.326  17.278  0.00  0.00    -0.506 OA
ATOM     21  HH  TYR A   2      81.595  84.352  16.340  0.00  0.00    +0.292 HD
ENDBRANCH  17  20
ENDBRANCH  13  14
ENDBRANCH   1  13
TORSDOF 6
REMARK  Name = ../refined-set-2016/4ufk/4ufk_pocket.pdb
REMARK  128 active torsions:
REMARK  status: ('A' for Active; 'I' for Inactive)
REMARK    1  A    between atoms: _1  and  _3
REMARK    2  A    between atoms: _3  and  _4
REMARK    3  A    between atoms: _3  and  _6
REMARK    4  A    between atoms: _9  and  _11
REMARK    5  A    between atoms: _11  and  _12
REMARK    6  A    between atoms: _14  and  _16
REMARK    7  A    between atoms: _16  and  _17
REMARK    8  A    between atoms: _19  and  _21
REMARK    9  A    between atoms: _21  and  _22
REMARK   10  A    between atoms: _24  and  _26
REMARK   11  A    between atoms: _26  and  _27
REMARK   12  A    between atoms: _30  and  _32
REMARK   13  A    between atoms: _32  and  _33
REMARK   14  A    between atoms: _32  and  _35
REMARK   15  A    between atoms: _35  and  _36
REMARK   16  A    between atoms: _39  and  _41
REMARK   17  A    between atoms: _41  and  _42
REMARK   18  A    between atoms: _41  and  _44
REMARK   19  A    between atoms: _44  and  _45
REMARK   20  A    between atoms: _45  and  _46
REMARK   21  A    between atoms: _46  and  _47
REMARK   22  A    between atoms: _47  and  _48
REMARK   23  A    between atoms: _52  and  _54
REMARK   24  A    between atoms: _54  and  _55
REMARK   25  A    between atoms: _54  and  _57
REMARK   26  A    between atoms: _57  and  _58
REMARK   27  A    between atoms: _58  and  _59
REMARK   28  A    between atoms: _62  and  _64
REMARK   29  A    between atoms: _64  and  _65
REMARK   30  A    between atoms: _64  and  _67
REMARK   31  A    between atoms: _67  and  _68
REMARK   32  A    between atoms: _71  and  _73
REMARK   33  A    between atoms: _73  and  _74
REMARK   34  A    between atoms: _73  and  _76
REMARK   35  A    between atoms: _76  and  _77
REMARK   36  A    between atoms: _80  and  _82
REMARK   37  A    between atoms: _82  and  _83
REMARK   38  A    between atoms: _82  and  _85
REMARK   39  A    between atoms: _85  and  _86
REMARK   40  A    between atoms: _89  and  _91
REMARK   41  A    between atoms: _91  and  _92
REMARK   42  A    between atoms: _91  and  _94
REMARK   43  A    between atoms: _94  and  _95
REMARK   44  A    between atoms: _105  and  _107
REMARK   45  A    between atoms: _107  and  _108
REMARK   46  A    between atoms: _107  and  _110
REMARK   47  A    between atoms: _110  and  _111
REMARK   48  A    between atoms: _116  and  _118
REMARK   49  A    between atoms: _118  and  _119
REMARK   50  A    between atoms: _118  and  _121
REMARK   51  A    between atoms: _121  and  _122
REMARK   52  A    between atoms: _122  and  _123
REMARK   53  A    between atoms: _126  and  _128
REMARK   54  A    between atoms: _128  and  _129
REMARK   55  A    between atoms: _128  and  _131
REMARK   56  A    between atoms: _131  and  _132
REMARK   57  A    between atoms: _132  and  _133
REMARK   58  A    between atoms: _133  and  _134
REMARK   59  A    between atoms: _143  and  _145
REMARK   60  A    between atoms: _145  and  _146
REMARK   61  A    between atoms: _145  and  _148
REMARK   62  A    between atoms: _148  and  _149
REMARK   63  A    between atoms: _152  and  _154
REMARK   64  A    between atoms: _154  and  _155
REMARK   65  A    between atoms: _154  and  _157
REMARK   66  A    between atoms: _157  and  _158
REMARK   67  A    between atoms: _163  and  _165
REMARK   68  A    between atoms: _165  and  _166
REMARK   69  A    between atoms: _165  and  _168
REMARK   70  A    between atoms: _168  and  _169
REMARK   71  A    between atoms: _174  and  _175
REMARK   72  A    between atoms: _177  and  _179
REMARK   73  A    between atoms: _179  and  _180
REMARK   74  A    between atoms: _179  and  _182
REMARK   75  A    between atoms: _182  and  _183
REMARK   76  A    between atoms: _183  and  _184
REMARK   77  A    between atoms: _187  and  _189
REMARK   78  A    between atoms: _189  and  _190
REMARK   79  A    between atoms: _189  and  _192
REMARK   80  A    between atoms: _192  and  _193
REMARK   81  A    between atoms: _196  and  _198
REMARK   82  A    between atoms: _198  and  _199
REMARK   83  A    between atoms: _198  and  _201
REMARK   84  A    between atoms: _201  and  _202
REMARK   85  A    between atoms: _208  and  _210
REMARK   86  A    between atoms: _210  and  _211
REMARK   87  A    between atoms: _210  and  _213
REMARK   88  A    between atoms: _213  and  _214
REMARK   89  A    between atoms: _216  and  _218
REMARK   90  A    between atoms: _218  and  _219
REMARK   91  A    between atoms: _218  and  _221
REMARK   92  A    between atoms: _221  and  _222
REMARK   93  A    between atoms: _225  and  _227
REMARK   94  A    between atoms: _227  and  _228
REMARK   95  A    between atoms: _227  and  _230
REMARK   96  A    between atoms: _230  and  _231
REMARK   97  A    between atoms: _241  and  _243
REMARK   98  A    between atoms: _243  and  _244
REMARK   99  A    between atoms: _243  and  _246
REMARK  100  A    between atoms: _246  and  _247
REMARK  101  A    between atoms: _253  and  _254
REMARK  102  A    between atoms: _259  and  _261
REMARK  103  A    between atoms: _261  and  _262
REMARK  104  A    between atoms: _261  and  _264
REMARK  105  A    between atoms: _264  and  _265
REMARK  106  A    between atoms: _270  and  _271
REMARK  107  A    between atoms: _273  and  _275
REMARK  108  A    between atoms: _275  and  _276
REMARK  109  A    between atoms: _275  and  _278
REMARK  110  A    between atoms: _278  and  _279
REMARK  111  A    between atoms: _281  and  _283
REMARK  112  A    between atoms: _283  and  _284
REMARK  113  A    between atoms: _283  and  _286
REMARK  114  A    between atoms: _286  and  _287
REMARK  115  A    between atoms: _290  and  _292
REMARK  116  A    between atoms: _292  and  _293
REMARK  117  A    between atoms: _292  and  _295
REMARK  118  A    between atoms: _295  and  _296
REMARK  119  A    between atoms: _296  and  _297
REMARK  120  A    between atoms: _297  and  _298
REMARK  121  A    between atoms: _307  and  _309
REMARK  122  A    between atoms: _309  and  _310
REMARK  123  A    between atoms: _309  and  _312
REMARK  124  A    between atoms: _312  and  _313
REMARK  125  A    between atoms: _323  and  _325
REMARK  126  A    between atoms: _325  and  _326
REMARK  127  A    between atoms: _325  and  _328
REMARK  128  A    between atoms: _328  and  _329
REMARK                            x       y       z     vdW  Elec       q    Type
REMARK                         _______ _______ _______ _____ _____    ______ ____
ROOT
ATOM      1  CA  SER A   1      88.045  91.887  20.090  0.00  0.00    +0.163 C 
ENDROOT
BRANCH   1   2
ATOM      2  N   SER A   1      88.799  91.353  21.213  0.00  0.00    -0.237 NA
ATOM      3  H   SER A   1      88.278  91.000  22.041  0.00  0.00    +0.142 HD
ENDBRANCH   1   2
BRANCH   1   4
ATOM      4  CB  SER A   1      87.373  93.216  20.413  0.00  0.00    +0.227 C 
ATOM      5  OG  SER A   1      86.207  93.434  20.065  0.00  0.00    -0.287 OA
ENDBRANCH   1   4
BRANCH   1   6
ATOM      6  C   SER A   1      86.983  90.889  19.640  0.00  0.00    +0.162 C 
BRANCH   6   7
ATOM      7  O   SER A   1      87.573  89.730  19.086  0.00  0.00    -0.380 OA
ATOM      8  H   SER A   1      86.862  89.102  18.804  0.00  0.00    +0.211 HD
ENDBRANCH   6   7
ENDBRANCH   1   6
TORSDOF 4
REMARK  Name = ../refined-set-2016/4ufk/4ufk_pocket.pdb
REMARK  128 active torsions:
REMARK  status: ('A' for Active; 'I' for Inactive)
REMARK    1  A    between atoms: _1  and  _3
REMARK    2  A    between atoms: _3  and  _4
REMARK    3  A    between atoms: _3  and  _6
REMARK    4  A    between atoms: _9  and  _11
REMARK    5  A    between atoms: _11  and  _12
REMARK    6  A    between atoms: _14  and  _16
REMARK    7  A    between atoms: _16  and  _17
REMARK    8  A    between atoms: _19  and  _21
REMARK    9  A    between atoms: _21  and  _22
REMARK   10  A    between atoms: _24  and  _26
REMARK   11  A    between atoms: _26  and  _27
REMARK   12  A    between atoms: _30  and  _32
REMARK   13  A    between atoms: _32  and  _33
REMARK   14  A    between atoms: _32  and  _35
REMARK   15  A    between atoms: _35  and  _36
REMARK   16  A    between atoms: _39  and  _41
REMARK   17  A    between atoms: _41  and  _42
REMARK   18  A    between atoms: _41  and  _44
REMARK   19  A    between atoms: _44  and  _45
REMARK   20  A    between atoms: _45  and  _46
REMARK   21  A    between atoms: _46  and  _47
REMARK   22  A    between atoms: _47  and  _48
REMARK   23  A    between atoms: _52  and  _54
REMARK   24  A    between atoms: _54  and  _55
REMARK   25  A    between atoms: _54  and  _57
REMARK   26  A    between atoms: _57  and  _58
REMARK   27  A    between atoms: _58  and  _59
REMARK   28  A    between atoms: _62  and  _64
REMARK   29  A    between atoms: _64  and  _65
REMARK   30  A    between atoms: _64  and  _67
REMARK   31  A    between atoms: _67  and  _68
REMARK   32  A    between atoms: _71  and  _73
REMARK   33  A    between atoms: _73  and  _74
REMARK   34  A    between atoms: _73  and  _76
REMARK   35  A    between atoms: _76  and  _77
REMARK   36  A    between atoms: _80  and  _82
REMARK   37  A    between atoms: _82  and  _83
REMARK   38  A    between atoms: _82  and  _85
REMARK   39  A    between atoms: _85  and  _86
REMARK   40  A    between atoms: _89  and  _91
REMARK   41  A    between atoms: _91  and  _92
REMARK   42  A    between atoms: _91  and  _94
REMARK   43  A    between atoms: _94  and  _95
REMARK   44  A    between atoms: _105  and  _107
REMARK   45  A    between atoms: _107  and  _108
REMARK   46  A    between atoms: _107  and  _110
REMARK   47  A    between atoms: _110  and  _111
REMARK   48  A    between atoms: _116  and  _118
REMARK   49  A    between atoms: _118  and  _119
REMARK   50  A    between atoms: _118  and  _121
REMARK   51  A    between atoms: _121  and  _122
REMARK   52  A    between atoms: _122  and  _123
REMARK   53  A    between atoms: _126  and  _128
REMARK   54  A    between atoms: _128  and  _129
REMARK   55  A    between atoms: _128  and  _131
REMARK   56  A    between atoms: _131  and  _132
REMARK   57  A    between atoms: _132  and  _133
REMARK   58  A    between atoms: _133  and  _134
REMARK   59  A    between atoms: _143  and  _145
REMARK   60  A    between atoms: _145  and  _146
REMARK   61  A    between atoms: _145  and  _148
REMARK   62  A    between atoms: _148  and  _149
REMARK   63  A    between atoms: _152  and  _154
REMARK   64  A    between atoms: _154  and  _155
REMARK   65  A    between atoms: _154  and  _157
REMARK   66  A    between atoms: _157  and  _158
REMARK   67  A    between atoms: _163  and  _165
REMARK   68  A    between atoms: _165  and  _166
REMARK   69  A    between atoms: _165  and  _168
REMARK   70  A    between atoms: _168  and  _169
REMARK   71  A    between atoms: _174  and  _175
REMARK   72  A    between atoms: _177  and  _179
REMARK   73  A    between atoms: _179  and  _180
REMARK   74  A    between atoms: _179  and  _182
REMARK   75  A    between atoms: _182  and  _183
REMARK   76  A    between atoms: _183  and  _184
REMARK   77  A    between atoms: _187  and  _189
REMARK   78  A    between atoms: _189  and  _190
REMARK   79  A    between atoms: _189  and  _192
REMARK   80  A    between atoms: _192  and  _193
REMARK   81  A    between atoms: _196  and  _198
REMARK   82  A    between atoms: _198  and  _199
REMARK   83  A    between atoms: _198  and  _201
REMARK   84  A    between atoms: _201  and  _202
REMARK   85  A    between atoms: _208  and  _210
REMARK   86  A    between atoms: _210  and  _211
REMARK   87  A    between atoms: _210  and  _213
REMARK   88  A    between atoms: _213  and  _214
REMARK   89  A    between atoms: _216  and  _218
REMARK   90  A    between atoms: _218  and  _219
REMARK   91  A    between atoms: _218  and  _221
REMARK   92  A    between atoms: _221  and  _222
REMARK   93  A    between atoms: _225  and  _227
REMARK   94  A    between atoms: _227  and  _228
REMARK   95  A    between atoms: _227  and  _230
REMARK   96  A    between atoms: _230  and  _231
REMARK   97  A    between atoms: _241  and  _243
REMARK   98  A    between atoms: _243  and  _244
REMARK   99  A    between atoms: _243  and  _246
REMARK  100  A    between atoms: _246  and  _247
REMARK  101  A    between atoms: _253  and  _254
REMARK  102  A    between atoms: _259  and  _261
REMARK  103  A    between atoms: _261  and  _262
REMARK  104  A    between atoms: _261  and  _264
REMARK  105  A    between atoms: _264  and  _265
REMARK  106  A    between atoms: _270  and  _271
REMARK  107  A    between atoms: _273  and  _275
REMARK  108  A    between atoms: _275  and  _276
REMARK  109  A    between atoms: _275  and  _278
REMARK  110  A    between atoms: _278  and  _279
REMARK  111  A    between atoms: _281  and  _283
REMARK  112  A    between atoms: _283  and  _284
REMARK  113  A    between atoms: _283  and  _286
REMARK  114  A    between atoms: _286  and  _287
REMARK  115  A    between atoms: _290  and  _292
REMARK  116  A    between atoms: _292  and  _293
REMARK  117  A    between atoms: _292  and  _295
REMARK  118  A    between atoms: _295  and  _296
REMARK  119  A    between atoms: _296  and  _297
REMARK  120  A    between atoms: _297  and  _298
REMARK  121  A    between atoms: _307  and  _309
REMARK  122  A    between atoms: _309  and  _310
REMARK  123  A    between atoms: _309  and  _312
REMARK  124  A    between atoms: _312  and  _313
REMARK  125  A    between atoms: _323  and  _325
REMARK  126  A    between atoms: _325  and  _326
REMARK  127  A    between atoms: _325  and  _328
REMARK  128  A    between atoms: _328  and  _329
REMARK                            x       y       z     vdW  Elec       q    Type
REMARK                         _______ _______ _______ _____ _____    ______ ____
ROOT
ATOM      1  CA  ARG A   2      81.983  88.059   9.377  0.00  0.00    +0.137 C 
ENDROOT
BRANCH   1   3
ATOM      2  C   ILE A   1      84.113  87.127  10.083  0.00  0.00    +0.238 C 
ATOM      3  N   ARG A   2      83.343  88.198   9.890  0.00  0.00    -0.298 N 
ATOM      4  H   ARG A   2      83.716  89.144  10.108  0.00  0.00    +0.150 HD
ATOM      5  O   ILE A   1      83.781  86.004   9.726  0.00  0.00    -0.274 OA
BRANCH   2   6
ATOM      6  CA  ILE A   1      85.470  87.341  10.750  0.00  0.00    +0.145 C 
BRANCH   6   7
ATOM      7  N   ILE A   1      85.952  88.688  10.521  0.00  0.00    -0.238 NA
ATOM      8  H   ILE A   1      85.950  89.388  11.290  0.00  0.00    +0.142 HD
ENDBRANCH   6   7
BRANCH   6   9
ATOM      9  CB  ILE A   1      85.369  87.034  12.234  0.00  0.00    +0.025 C 
ATOM     10  CG2 ILE A   1      86.717  87.239  12.904  0.00  0.00    +0.002 C 
BRANCH   9  11
ATOM     11  CG1 ILE A   1      84.319  87.922  12.888  0.00  0.00    +0.002 C 
ATOM     12  CD1 ILE A   1      83.787  87.340  14.168  0.00  0.00    +0.000 C 
ENDBRANCH   9  11
ENDBRANCH   6   9
ENDBRANCH   2   6
ENDBRANCH   1   3
BRANCH   1  13
ATOM     13  C   ARG A   2      81.529  89.250   8.506  0.00  0.00    +0.227 C 
ATOM     14  O   ARG A   2      81.158  90.299   9.026  0.00  0.00    -0.286 OA
ENDBRANCH   1  13
BRANCH   1  15
ATOM     15  CB  ARG A   2      81.025  87.866  10.550  0.00  0.00    +0.031 C 
BRANCH  15  16
ATOM     16  CG  ARG A   2      79.704  87.238  10.187  0.00  0.00    +0.045 C 
BRANCH  16  17
ATOM     17  CD  ARG A   2      78.756  87.222  11.379  0.00  0.00    +0.174 C 
BRANCH  17  18
ATOM     18  NE  ARG A   2      79.224  86.342  12.439  0.00  0.00    -0.265 N 
ATOM     19  CZ  ARG A   2      79.589  86.741  13.649  0.00  0.00    +0.342 C 
ATOM     20  NH2 ARG A   2      79.990  85.846  14.537  0.00  0.00    -0.292 N 
ATOM     21 HH21 ARG A   2      80.278  86.151  15.489  0.00  0.00    +0.255 HD
ATOM     22 HH22 ARG A   2      80.017  84.838  14.283  0.00  0.00    +0.255 HD
ATOM     23  NH1 ARG A   2      79.549  88.028  13.975  0.00  0.00    -0.292 N 
ATOM     24 HH11 ARG A   2      79.837  88.333  14.927  0.00  0.00    +0.255 HD
ATOM     25 HH12 ARG A   2      79.230  88.731  13.279  0.00  0.00    +0.255 HD
ATOM     26  HE  ARG A   2      79.276  85.324  12.232  0.00  0.00    +0.259 HD
ENDBRANCH  17  18
ENDBRANCH  16  17
ENDBRANCH  15  16
ENDBRANCH   1  15
TORSDOF 10
REMARK  Name = ../refined-set-2016/4ufk/4ufk_pocket.pdb
REMARK  128 active torsions:
REMARK  status: ('A' for Active; 'I' for Inactive)
REMARK    1  A    between atoms: _1  and  _3
REMARK    2  A    between atoms: _3  and  _4
REMARK    3  A    between atoms: _3  and  _6
REMARK    4  A    between atoms: _9  and  _11
REMARK    5  A    between atoms: _11  and  _12
REMARK    6  A    between atoms: _14  and  _16
REMARK    7  A    between atoms: _16  and  _17
REMARK    8  A    between atoms: _19  and  _21
REMARK    9  A    between atoms: _21  and  _22
REMARK   10  A    between atoms: _24  and  _26
REMARK   11  A    between atoms: _26  and  _27
REMARK   12  A    between atoms: _30  and  _32
REMARK   13  A    between atoms: _32  and  _33
REMARK   14  A    between atoms: _32  and  _35
REMARK   15  A    between atoms: _35  and  _36
REMARK   16  A    between atoms: _39  and  _41
REMARK   17  A    between atoms: _41  and  _42
REMARK   18  A    between atoms: _41  and  _44
REMARK   19  A    between atoms: _44  and  _45
REMARK   20  A    between atoms: _45  and  _46
REMARK   21  A    between atoms: _46  and  _47
REMARK   22  A    between atoms: _47  and  _48
REMARK   23  A    between atoms: _52  and  _54
REMARK   24  A    between atoms: _54  and  _55
REMARK   25  A    between atoms: _54  and  _57
REMARK   26  A    between atoms: _57  and  _58
REMARK   27  A    between atoms: _58  and  _59
REMARK   28  A    between atoms: _62  and  _64
REMARK   29  A    between atoms: _64  and  _65
REMARK   30  A    between atoms: _64  and  _67
REMARK   31  A    between atoms: _67  and  _68
REMARK   32  A    between atoms: _71  and  _73
REMARK   33  A    between atoms: _73  and  _74
REMARK   34  A    between atoms: _73  and  _76
REMARK   35  A    between atoms: _76  and  _77
REMARK   36  A    between atoms: _80  and  _82
REMARK   37  A    between atoms: _82  and  _83
REMARK   38  A    between atoms: _82  and  _85
REMARK   39  A    between atoms: _85  and  _86
REMARK   40  A    between atoms: _89  and  _91
REMARK   41  A    between atoms: _91  and  _92
REMARK   42  A    between atoms: _91  and  _94
REMARK   43  A    between atoms: _94  and  _95
REMARK   44  A    between atoms: _105  and  _107
REMARK   45  A    between atoms: _107  and  _108
REMARK   46  A    between atoms: _107  and  _110
REMARK   47  A    between atoms: _110  and  _111
REMARK   48  A    between atoms: _116  and  _118
REMARK   49  A    between atoms: _118  and  _119
REMARK   50  A    between atoms: _118  and  _121
REMARK   51  A    between atoms: _121  and  _122
REMARK   52  A    between atoms: _122  and  _123
REMARK   53  A    between atoms: _126  and  _128
REMARK   54  A    between atoms: _128  and  _129
REMARK   55  A    between atoms: _128  and  _131
REMARK   56  A    between atoms: _131  and  _132
REMARK   57  A    between atoms: _132  and  _133
REMARK   58  A    between atoms: _133  and  _134
REMARK   59  A    between atoms: _143  and  _145
REMARK   60  A    between atoms: _145  and  _146
REMARK   61  A    between atoms: _145  and  _148
REMARK   62  A    between atoms: _148  and  _149
REMARK   63  A    between atoms: _152  and  _154
REMARK   64  A    between atoms: _154  and  _155
REMARK   65  A    between atoms: _154  and  _157
REMARK   66  A    between atoms: _157  and  _158
REMARK   67  A    between atoms: _163  and  _165
REMARK   68  A    between atoms: _165  and  _166
REMARK   69  A    between atoms: _165  and  _168
REMARK   70  A    between atoms: _168  and  _169
REMARK   71  A    between atoms: _174  and  _175
REMARK   72  A    between atoms: _177  and  _179
REMARK   73  A    between atoms: _179  and  _180
REMARK   74  A    between atoms: _179  and  _182
REMARK   75  A    between atoms: _182  and  _183
REMARK   76  A    between atoms: _183  and  _184
REMARK   77  A    between atoms: _187  and  _189
REMARK   78  A    between atoms: _189  and  _190
REMARK   79  A    between atoms: _189  and  _192
REMARK   80  A    between atoms: _192  and  _193
REMARK   81  A    between atoms: _196  and  _198
REMARK   82  A    between atoms: _198  and  _199
REMARK   83  A    between atoms: _198  and  _201
REMARK   84  A    between atoms: _201  and  _202
REMARK   85  A    between atoms: _208  and  _210
REMARK   86  A    between atoms: _210  and  _211
REMARK   87  A    between atoms: _210  and  _213
REMARK   88  A    between atoms: _213  and  _214
REMARK   89  A    between atoms: _216  and  _218
REMARK   90  A    between atoms: _218  and  _219
REMARK   91  A    between atoms: _218  and  _221
REMARK   92  A    between atoms: _221  and  _222
REMARK   93  A    between atoms: _225  and  _227
REMARK   94  A    between atoms: _227  and  _228
REMARK   95  A    between atoms: _227  and  _230
REMARK   96  A    between atoms: _230  and  _231
REMARK   97  A    between atoms: _241  and  _243
REMARK   98  A    between atoms: _243  and  _244
REMARK   99  A    between atoms: _243  and  _246
REMARK  100  A    between atoms: _246  and  _247
REMARK  101  A    between atoms: _253  and  _254
REMARK  102  A    between atoms: _259  and  _261
REMARK  103  A    between atoms: _261  and  _262
REMARK  104  A    between atoms: _261  and  _264
REMARK  105  A    between atoms: _264  and  _265
REMARK  106  A    between atoms: _270  and  _271
REMARK  107  A    between atoms: _273  and  _275
REMARK  108  A    between atoms: _275  and  _276
REMARK  109  A    between atoms: _275  and  _278
REMARK  110  A    between atoms: _278  and  _279
REMARK  111  A    between atoms: _281  and  _283
REMARK  112  A    between atoms: _283  and  _284
REMARK  113  A    between atoms: _283  and  _286
REMARK  114  A    between atoms: _286  and  _287
REMARK  115  A    between atoms: _290  and  _292
REMARK  116  A    between atoms: _292  and  _293
REMARK  117  A    between atoms: _292  and  _295
REMARK  118  A    between atoms: _295  and  _296
REMARK  119  A    between atoms: _296  and  _297
REMARK  120  A    between atoms: _297  and  _298
REMARK  121  A    between atoms: _307  and  _309
REMARK  122  A    between atoms: _309  and  _310
REMARK  123  A    between atoms: _309  and  _312
REMARK  124  A    between atoms: _312  and  _313
REMARK  125  A    between atoms: _323  and  _325
REMARK  126  A    between atoms: _325  and  _326
REMARK  127  A    between atoms: _325  and  _328
REMARK  128  A    between atoms: _328  and  _329
REMARK                            x       y       z     vdW  Elec       q    Type
REMARK                         _______ _______ _______ _____ _____    ______ ____
ROOT
ATOM      1  CG  TRP A   1      71.438  86.184  23.571  0.00  0.00    -0.002 A 
ATOM      2  CD2 TRP A   1      72.714  86.088  22.929  0.00  0.00    +0.013 A 
ATOM      3  CE3 TRP A   1      73.936  85.503  23.279  0.00  0.00    +0.001 A 
ATOM      4  CZ3 TRP A   1      75.006  85.589  22.379  0.00  0.00    +0.000 A 
ATOM      5  CH2 TRP A   1      74.861  86.249  21.148  0.00  0.00    +0.001 A 
ATOM      6  CZ2 TRP A   1      73.673  86.830  20.785  0.00  0.00    +0.017 A 
ATOM      7  CE2 TRP A   1      72.601  86.741  21.687  0.00  0.00    +0.056 A 
ATOM      8  NE1 TRP A   1      71.320  87.212  21.589  0.00  0.00    -0.352 N 
ATOM      9  HE1 TRP A   1      70.931  87.739  20.781  0.00  0.00    +0.166 HD
ATOM     10  CD1 TRP A   1      70.633  86.879  22.725  0.00  0.00    +0.068 A 
ENDROOT
BRANCH   1  11
ATOM     11  CB  TRP A   1      71.072  85.656  24.899  0.00  0.00    +0.053 C 
BRANCH  11  12
ATOM     12  CA  TRP A   1      70.268  84.362  24.847  0.00  0.00    +0.137 C 
BRANCH  12  13
ATOM     13  N   TRP A   1      69.778  84.012  26.166  0.00  0.00    -0.239 NA
ATOM     14  H   TRP A   1      70.395  84.194  26.983  0.00  0.00    +0.142 HD
ENDBRANCH  12  13
BRANCH  12  15
ATOM     15  C   TRP A   1      71.135  83.212  24.374  0.00  0.00    +0.224 C 
ATOM     16  O   TRP A   1      70.964  82.676  23.286  0.00  0.00    -0.287 OA
ENDBRANCH  12  15
ENDBRANCH  11  12
ENDBRANCH   1  11
TORSDOF 4
REMARK  Name = ../refined-set-2016/4ufk/4ufk_pocket.pdb
REMARK  128 active torsions:
REMARK  status: ('A' for Active; 'I' for Inactive)
REMARK    1  A    between atoms: _1  and  _3
REMARK    2  A    between atoms: _3  and  _4
REMARK    3  A    between atoms: _3  and  _6
REMARK    4  A    between atoms: _9  and  _11
REMARK    5  A    between atoms: _11  and  _12
REMARK    6  A    between atoms: _14  and  _16
REMARK    7  A    between atoms: _16  and  _17
REMARK    8  A    between atoms: _19  and  _21
REMARK    9  A    between atoms: _21  and  _22
REMARK   10  A    between atoms: _24  and  _26
REMARK   11  A    between atoms: _26  and  _27
REMARK   12  A    between atoms: _30  and  _32
REMARK   13  A    between atoms: _32  and  _33
REMARK   14  A    between atoms: _32  and  _35
REMARK   15  A    between atoms: _35  and  _36
REMARK   16  A    between atoms: _39  and  _41
REMARK   17  A    between atoms: _41  and  _42
REMARK   18  A    between atoms: _41  and  _44
REMARK   19  A    between atoms: _44  and  _45
REMARK   20  A    between atoms: _45  and  _46
REMARK   21  A    between atoms: _46  and  _47
REMARK   22  A    between atoms: _47  and  _48
REMARK   23  A    between atoms: _52  and  _54
REMARK   24  A    between atoms: _54  and  _55
REMARK   25  A    between atoms: _54  and  _57
REMARK   26  A    between atoms: _57  and  _58
REMARK   27  A    between atoms: _58  and  _59
REMARK   28  A    between atoms: _62  and  _64
REMARK   29  A    between atoms: _64  and  _65
REMARK   30  A    between atoms: _64  and  _67
REMARK   31  A    between atoms: _67  and  _68
REMARK   32  A    between atoms: _71  and  _73
REMARK   33  A    between atoms: _73  and  _74
REMARK   34  A    between atoms: _73  and  _76
REMARK   35  A    between atoms: _76  and  _77
REMARK   36  A    between atoms: _80  and  _82
REMARK   37  A    between atoms: _82  and  _83
REMARK   38  A    between atoms: _82  and  _85
REMARK   39  A    between atoms: _85  and  _86
REMARK   40  A    between atoms: _89  and  _91
REMARK   41  A    between atoms: _91  and  _92
REMARK   42  A    between atoms: _91  and  _94
REMARK   43  A    between atoms: _94  and  _95
REMARK   44  A    between atoms: _105  and  _107
REMARK   45  A    between atoms: _107  and  _108
REMARK   46  A    between atoms: _107  and  _110
REMARK   47  A    between atoms: _110  and  _111
REMARK   48  A    between atoms: _116  and  _118
REMARK   49  A    between atoms: _118  and  _119
REMARK   50  A    between atoms: _118  and  _121
REMARK   51  A    between atoms: _121  and  _122
REMARK   52  A    between atoms: _122  and  _123
REMARK   53  A    between atoms: _126  and  _128
REMARK   54  A    between atoms: _128  and  _129
REMARK   55  A    between atoms: _128  and  _131
REMARK   56  A    between atoms: _131  and  _132
REMARK   57  A    between atoms: _132  and  _133
REMARK   58  A    between atoms: _133  and  _134
REMARK   59  A    between atoms: _143  and  _145
REMARK   60  A    between atoms: _145  and  _146
REMARK   61  A    between atoms: _145  and  _148
REMARK   62  A    between atoms: _148  and  _149
REMARK   63  A    between atoms: _152  and  _154
REMARK   64  A    between atoms: _154  and  _155
REMARK   65  A    between atoms: _154  and  _157
REMARK   66  A    between atoms: _157  and  _158
REMARK   67  A    between atoms: _163  and  _165
REMARK   68  A    between atoms: _165  and  _166
REMARK   69  A    between atoms: _165  and  _168
REMARK   70  A    between atoms: _168  and  _169
REMARK   71  A    between atoms: _174  and  _175
REMARK   72  A    between atoms: _177  and  _179
REMARK   73  A    between atoms: _179  and  _180
REMARK   74  A    between atoms: _179  and  _182
REMARK   75  A    between atoms: _182  and  _183
REMARK   76  A    between atoms: _183  and  _184
REMARK   77  A    between atoms: _187  and  _189
REMARK   78  A    between atoms: _189  and  _190
REMARK   79  A    between atoms: _189  and  _192
REMARK   80  A    between atoms: _192  and  _193
REMARK   81  A    between atoms: _196  and  _198
REMARK   82  A    between atoms: _198  and  _199
REMARK   83  A    between atoms: _198  and  _201
REMARK   84  A    between atoms: _201  and  _202
REMARK   85  A    between atoms: _208  and  _210
REMARK   86  A    between atoms: _210  and  _211
REMARK   87  A    between atoms: _210  and  _213
REMARK   88  A    between atoms: _213  and  _214
REMARK   89  A    between atoms: _216  and  _218
REMARK   90  A    between atoms: _218  and  _219
REMARK   91  A    between atoms: _218  and  _221
REMARK   92  A    between atoms: _221  and  _222
REMARK   93  A    between atoms: _225  and  _227
REMARK   94  A    between atoms: _227  and  _228
REMARK   95  A    between atoms: _227  and  _230
REMARK   96  A    between atoms: _230  and  _231
REMARK   97  A    between atoms: _241  and  _243
REMARK   98  A    between atoms: _243  and  _244
REMARK   99  A    between atoms: _243  and  _246
REMARK  100  A    between atoms: _246  and  _247
REMARK  101  A    between atoms: _253  and  _254
REMARK  102  A    between atoms: _259  and  _261
REMARK  103  A    between atoms: _261  and  _262
REMARK  104  A    between atoms: _261  and  _264
REMARK  105  A    between atoms: _264  and  _265
REMARK  106  A    between atoms: _270  and  _271
REMARK  107  A    between atoms: _273  and  _275
REMARK  108  A    between atoms: _275  and  _276
REMARK  109  A    between atoms: _275  and  _278
REMARK  110  A    between atoms: _278  and  _279
REMARK  111  A    between atoms: _281  and  _283
REMARK  112  A    between atoms: _283  and  _284
REMARK  113  A    between atoms: _283  and  _286
REMARK  114  A    between atoms: _286  and  _287
REMARK  115  A    between atoms: _290  and  _292
REMARK  116  A    between atoms: _292  and  _293
REMARK  117  A    between atoms: _292  and  _295
REMARK  118  A    between atoms: _295  and  _296
REMARK  119  A    between atoms: _296  and  _297
REMARK  120  A    between atoms: _297  and  _298
REMARK  121  A    between atoms: _307  and  _309
REMARK  122  A    between atoms: _309  and  _310
REMARK  123  A    between atoms: _309  and  _312
REMARK  124  A    between atoms: _312  and  _313
REMARK  125  A    between atoms: _323  and  _325
REMARK  126  A    between atoms: _325  and  _326
REMARK  127  A    between atoms: _325  and  _328
REMARK  128  A    between atoms: _328  and  _329
REMARK                            x       y       z     vdW  Elec       q    Type
REMARK                         _______ _______ _______ _____ _____    ______ ____
ROOT
ATOM      1  CA  ILE A   1      79.013  81.121  25.092  0.00  0.00    +0.133 C 
ENDROOT
BRANCH   1   2
ATOM      2  N   ILE A   1      79.918  81.865  25.958  0.00  0.00    -0.239 NA
ATOM      3  H   ILE A   1      80.550  82.567  25.524  0.00  0.00    +0.142 HD
ENDBRANCH   1   2
BRANCH   1   4
ATOM      4  C   ILE A   1      79.139  79.614  25.289  0.00  0.00    +0.224 C 
ATOM      5  O   ILE A   1      78.167  78.870  25.166  0.00  0.00    -0.287 OA
ENDBRANCH   1   4
BRANCH   1   6
ATOM      6  CB  ILE A   1      79.288  81.467  23.624  0.00  0.00    +0.023 C 
ATOM      7  CG2 ILE A   1      78.561  80.556  22.735  0.00  0.00    +0.002 C 
BRANCH   6   8
ATOM      8  CG1 ILE A   1      78.767  82.856  23.326  0.00  0.00    +0.002 C 
ATOM      9  CD1 ILE A   1      77.325  83.015  23.725  0.00  0.00    +0.000 C 
ENDBRANCH   6   8
ENDBRANCH   1   6
TORSDOF 4
REMARK  Name = ../refined-set-2016/4ufk/4ufk_pocket.pdb
REMARK  128 active torsions:
REMARK  status: ('A' for Active; 'I' for Inactive)
REMARK    1  A    between atoms: _1  and  _3
REMARK    2  A    between atoms: _3  and  _4
REMARK    3  A    between atoms: _3  and  _6
REMARK    4  A    between atoms: _9  and  _11
REMARK    5  A    between atoms: _11  and  _12
REMARK    6  A    between atoms: _14  and  _16
REMARK    7  A    between atoms: _16  and  _17
REMARK    8  A    between atoms: _19  and  _21
REMARK    9  A    between atoms: _21  and  _22
REMARK   10  A    between atoms: _24  and  _26
REMARK   11  A    between atoms: _26  and  _27
REMARK   12  A    between atoms: _30  and  _32
REMARK   13  A    between atoms: _32  and  _33
REMARK   14  A    between atoms: _32  and  _35
REMARK   15  A    between atoms: _35  and  _36
REMARK   16  A    between atoms: _39  and  _41
REMARK   17  A    between atoms: _41  and  _42
REMARK   18  A    between atoms: _41  and  _44
REMARK   19  A    between atoms: _44  and  _45
REMARK   20  A    between atoms: _45  and  _46
REMARK   21  A    between atoms: _46  and  _47
REMARK   22  A    between atoms: _47  and  _48
REMARK   23  A    between atoms: _52  and  _54
REMARK   24  A    between atoms: _54  and  _55
REMARK   25  A    between atoms: _54  and  _57
REMARK   26  A    between atoms: _57  and  _58
REMARK   27  A    between atoms: _58  and  _59
REMARK   28  A    between atoms: _62  and  _64
REMARK   29  A    between atoms: _64  and  _65
REMARK   30  A    between atoms: _64  and  _67
REMARK   31  A    between atoms: _67  and  _68
REMARK   32  A    between atoms: _71  and  _73
REMARK   33  A    between atoms: _73  and  _74
REMARK   34  A    between atoms: _73  and  _76
REMARK   35  A    between atoms: _76  and  _77
REMARK   36  A    between atoms: _80  and  _82
REMARK   37  A    between atoms: _82  and  _83
REMARK   38  A    between atoms: _82  and  _85
REMARK   39  A    between atoms: _85  and  _86
REMARK   40  A    between atoms: _89  and  _91
REMARK   41  A    between atoms: _91  and  _92
REMARK   42  A    between atoms: _91  and  _94
REMARK   43  A    between atoms: _94  and  _95
REMARK   44  A    between atoms: _105  and  _107
REMARK   45  A    between atoms: _107  and  _108
REMARK   46  A    between atoms: _107  and  _110
REMARK   47  A    between atoms: _110  and  _111
REMARK   48  A    between atoms: _116  and  _118
REMARK   49  A    between atoms: _118  and  _119
REMARK   50  A    between atoms: _118  and  _121
REMARK   51  A    between atoms: _121  and  _122
REMARK   52  A    between atoms: _122  and  _123
REMARK   53  A    between atoms: _126  and  _128
REMARK   54  A    between atoms: _128  and  _129
REMARK   55  A    between atoms: _128  and  _131
REMARK   56  A    between atoms: _131  and  _132
REMARK   57  A    between atoms: _132  and  _133
REMARK   58  A    between atoms: _133  and  _134
REMARK   59  A    between atoms: _143  and  _145
REMARK   60  A    between atoms: _145  and  _146
REMARK   61  A    between atoms: _145  and  _148
REMARK   62  A    between atoms: _148  and  _149
REMARK   63  A    between atoms: _152  and  _154
REMARK   64  A    between atoms: _154  and  _155
REMARK   65  A    between atoms: _154  and  _157
REMARK   66  A    between atoms: _157  and  _158
REMARK   67  A    between atoms: _163  and  _165
REMARK   68  A    between atoms: _165  and  _166
REMARK   69  A    between atoms: _165  and  _168
REMARK   70  A    between atoms: _168  and  _169
REMARK   71  A    between atoms: _174  and  _175
REMARK   72  A    between atoms: _177  and  _179
REMARK   73  A    between atoms: _179  and  _180
REMARK   74  A    between atoms: _179  and  _182
REMARK   75  A    between atoms: _182  and  _183
REMARK   76  A    between atoms: _183  and  _184
REMARK   77  A    between atoms: _187  and  _189
REMARK   78  A    between atoms: _189  and  _190
REMARK   79  A    between atoms: _189  and  _192
REMARK   80  A    between atoms: _192  and  _193
REMARK   81  A    between atoms: _196  and  _198
REMARK   82  A    between atoms: _198  and  _199
REMARK   83  A    between atoms: _198  and  _201
REMARK   84  A    between atoms: _201  and  _202
REMARK   85  A    between atoms: _208  and  _210
REMARK   86  A    between atoms: _210  and  _211
REMARK   87  A    between atoms: _210  and  _213
REMARK   88  A    between atoms: _213  and  _214
REMARK   89  A    between atoms: _216  and  _218
REMARK   90  A    between atoms: _218  and  _219
REMARK   91  A    between atoms: _218  and  _221
REMARK   92  A    between atoms: _221  and  _222
REMARK   93  A    between atoms: _225  and  _227
REMARK   94  A    between atoms: _227  and  _228
REMARK   95  A    between atoms: _227  and  _230
REMARK   96  A    between atoms: _230  and  _231
REMARK   97  A    between atoms: _241  and  _243
REMARK   98  A    between atoms: _243  and  _244
REMARK   99  A    between atoms: _243  and  _246
REMARK  100  A    between atoms: _246  and  _247
REMARK  101  A    between atoms: _253  and  _254
REMARK  102  A    between atoms: _259  and  _261
REMARK  103  A    between atoms: _261  and  _262
REMARK  104  A    between atoms: _261  and  _264
REMARK  105  A    between atoms: _264  and  _265
REMARK  106  A    between atoms: _270  and  _271
REMARK  107  A    between atoms: _273  and  _275
REMARK  108  A    between atoms: _275  and  _276
REMARK  109  A    between atoms: _275  and  _278
REMARK  110  A    between atoms: _278  and  _279
REMARK  111  A    between atoms: _281  and  _283
REMARK  112  A    between atoms: _283  and  _284
REMARK  113  A    between atoms: _283  and  _286
REMARK  114  A    between atoms: _286  and  _287
REMARK  115  A    between atoms: _290  and  _292
REMARK  116  A    between atoms: _292  and  _293
REMARK  117  A    between atoms: _292  and  _295
REMARK  118  A    between atoms: _295  and  _296
REMARK  119  A    between atoms: _296  and  _297
REMARK  120  A    between atoms: _297  and  _298
REMARK  121  A    between atoms: _307  and  _309
REMARK  122  A    between atoms: _309  and  _310
REMARK  123  A    between atoms: _309  and  _312
REMARK  124  A    between atoms: _312  and  _313
REMARK  125  A    between atoms: _323  and  _325
REMARK  126  A    between atoms: _325  and  _326
REMARK  127  A    between atoms: _325  and  _328
REMARK  128  A    between atoms: _328  and  _329
REMARK                            x       y       z     vdW  Elec       q    Type
REMARK                         _______ _______ _______ _____ _____    ______ ____
ROOT
ATOM      1  O   HOH     1      74.293  94.669  19.291  0.00  0.00    +0.000 OA
ENDROOT
TORSDOF 0
REMARK  Name = ../refined-set-2016/4ufk/4ufk_pocket.pdb
REMARK  128 active torsions:
REMARK  status: ('A' for Active; 'I' for Inactive)
REMARK    1  A    between atoms: _1  and  _3
REMARK    2  A    between atoms: _3  and  _4
REMARK    3  A    between atoms: _3  and  _6
REMARK    4  A    between atoms: _9  and  _11
REMARK    5  A    between atoms: _11  and  _12
REMARK    6  A    between atoms: _14  and  _16
REMARK    7  A    between atoms: _16  and  _17
REMARK    8  A    between atoms: _19  and  _21
REMARK    9  A    between atoms: _21  and  _22
REMARK   10  A    between atoms: _24  and  _26
REMARK   11  A    between atoms: _26  and  _27
REMARK   12  A    between atoms: _30  and  _32
REMARK   13  A    between atoms: _32  and  _33
REMARK   14  A    between atoms: _32  and  _35
REMARK   15  A    between atoms: _35  and  _36
REMARK   16  A    between atoms: _39  and  _41
REMARK   17  A    between atoms: _41  and  _42
REMARK   18  A    between atoms: _41  and  _44
REMARK   19  A    between atoms: _44  and  _45
REMARK   20  A    between atoms: _45  and  _46
REMARK   21  A    between atoms: _46  and  _47
REMARK   22  A    between atoms: _47  and  _48
REMARK   23  A    between atoms: _52  and  _54
REMARK   24  A    between atoms: _54  and  _55
REMARK   25  A    between atoms: _54  and  _57
REMARK   26  A    between atoms: _57  and  _58
REMARK   27  A    between atoms: _58  and  _59
REMARK   28  A    between atoms: _62  and  _64
REMARK   29  A    between atoms: _64  and  _65
REMARK   30  A    between atoms: _64  and  _67
REMARK   31  A    between atoms: _67  and  _68
REMARK   32  A    between atoms: _71  and  _73
REMARK   33  A    between atoms: _73  and  _74
REMARK   34  A    between atoms: _73  and  _76
REMARK   35  A    between atoms: _76  and  _77
REMARK   36  A    between atoms: _80  and  _82
REMARK   37  A    between atoms: _82  and  _83
REMARK   38  A    between atoms: _82  and  _85
REMARK   39  A    between atoms: _85  and  _86
REMARK   40  A    between atoms: _89  and  _91
REMARK   41  A    between atoms: _91  and  _92
REMARK   42  A    between atoms: _91  and  _94
REMARK   43  A    between atoms: _94  and  _95
REMARK   44  A    between atoms: _105  and  _107
REMARK   45  A    between atoms: _107  and  _108
REMARK   46  A    between atoms: _107  and  _110
REMARK   47  A    between atoms: _110  and  _111
REMARK   48  A    between atoms: _116  and  _118
REMARK   49  A    between atoms: _118  and  _119
REMARK   50  A    between atoms: _118  and  _121
REMARK   51  A    between atoms: _121  and  _122
REMARK   52  A    between atoms: _122  and  _123
REMARK   53  A    between atoms: _126  and  _128
REMARK   54  A    between atoms: _128  and  _129
REMARK   55  A    between atoms: _128  and  _131
REMARK   56  A    between atoms: _131  and  _132
REMARK   57  A    between atoms: _132  and  _133
REMARK   58  A    between atoms: _133  and  _134
REMARK   59  A    between atoms: _143  and  _145
REMARK   60  A    between atoms: _145  and  _146
REMARK   61  A    between atoms: _145  and  _148
REMARK   62  A    between atoms: _148  and  _149
REMARK   63  A    between atoms: _152  and  _154
REMARK   64  A    between atoms: _154  and  _155
REMARK   65  A    between atoms: _154  and  _157
REMARK   66  A    between atoms: _157  and  _158
REMARK   67  A    between atoms: _163  and  _165
REMARK   68  A    between atoms: _165  and  _166
REMARK   69  A    between atoms: _165  and  _168
REMARK   70  A    between atoms: _168  and  _169
REMARK   71  A    between atoms: _174  and  _175
REMARK   72  A    between atoms: _177  and  _179
REMARK   73  A    between atoms: _179  and  _180
REMARK   74  A    between atoms: _179  and  _182
REMARK   75  A    between atoms: _182  and  _183
REMARK   76  A    between atoms: _183  and  _184
REMARK   77  A    between atoms: _187  and  _189
REMARK   78  A    between atoms: _189  and  _190
REMARK   79  A    between atoms: _189  and  _192
REMARK   80  A    between atoms: _192  and  _193
REMARK   81  A    between atoms: _196  and  _198
REMARK   82  A    between atoms: _198  and  _199
REMARK   83  A    between atoms: _198  and  _201
REMARK   84  A    between atoms: _201  and  _202
REMARK   85  A    between atoms: _208  and  _210
REMARK   86  A    between atoms: _210  and  _211
REMARK   87  A    between atoms: _210  and  _213
REMARK   88  A    between atoms: _213  and  _214
REMARK   89  A    between atoms: _216  and  _218
REMARK   90  A    between atoms: _218  and  _219
REMARK   91  A    between atoms: _218  and  _221
REMARK   92  A    between atoms: _221  and  _222
REMARK   93  A    between atoms: _225  and  _227
REMARK   94  A    between atoms: _227  and  _228
REMARK   95  A    between atoms: _227  and  _230
REMARK   96  A    between atoms: _230  and  _231
REMARK   97  A    between atoms: _241  and  _243
REMARK   98  A    between atoms: _243  and  _244
REMARK   99  A    between atoms: _243  and  _246
REMARK  100  A    between atoms: _246  and  _247
REMARK  101  A    between atoms: _253  and  _254
REMARK  102  A    between atoms: _259  and  _261
REMARK  103  A    between atoms: _261  and  _262
REMARK  104  A    between atoms: _261  and  _264
REMARK  105  A    between atoms: _264  and  _265
REMARK  106  A    between atoms: _270  and  _271
REMARK  107  A    between atoms: _273  and  _275
REMARK  108  A    between atoms: _275  and  _276
REMARK  109  A    between atoms: _275  and  _278
REMARK  110  A    between atoms: _278  and  _279
REMARK  111  A    between atoms: _281  and  _283
REMARK  112  A    between atoms: _283  and  _284
REMARK  113  A    between atoms: _283  and  _286
REMARK  114  A    between atoms: _286  and  _287
REMARK  115  A    between atoms: _290  and  _292
REMARK  116  A    between atoms: _292  and  _293
REMARK  117  A    between atoms: _292  and  _295
REMARK  118  A    between atoms: _295  and  _296
REMARK  119  A    between atoms: _296  and  _297
REMARK  120  A    between atoms: _297  and  _298
REMARK  121  A    between atoms: _307  and  _309
REMARK  122  A    between atoms: _309  and  _310
REMARK  123  A    between atoms: _309  and  _312
REMARK  124  A    between atoms: _312  and  _313
REMARK  125  A    between atoms: _323  and  _325
REMARK  126  A    between atoms: _325  and  _326
REMARK  127  A    between atoms: _325  and  _328
REMARK  128  A    between atoms: _328  and  _329
REMARK                            x       y       z     vdW  Elec       q    Type
REMARK                         _______ _______ _______ _____ _____    ______ ____
ROOT
ATOM      1  O   HOH     1      73.224  85.108  18.068  0.00  0.00    +0.000 OA
ENDROOT
TORSDOF 0
REMARK  Name = ../refined-set-2016/4ufk/4ufk_pocket.pdb
REMARK  128 active torsions:
REMARK  status: ('A' for Active; 'I' for Inactive)
REMARK    1  A    between atoms: _1  and  _3
REMARK    2  A    between atoms: _3  and  _4
REMARK    3  A    between atoms: _3  and  _6
REMARK    4  A    between atoms: _9  and  _11
REMARK    5  A    between atoms: _11  and  _12
REMARK    6  A    between atoms: _14  and  _16
REMARK    7  A    between atoms: _16  and  _17
REMARK    8  A    between atoms: _19  and  _21
REMARK    9  A    between atoms: _21  and  _22
REMARK   10  A    between atoms: _24  and  _26
REMARK   11  A    between atoms: _26  and  _27
REMARK   12  A    between atoms: _30  and  _32
REMARK   13  A    between atoms: _32  and  _33
REMARK   14  A    between atoms: _32  and  _35
REMARK   15  A    between atoms: _35  and  _36
REMARK   16  A    between atoms: _39  and  _41
REMARK   17  A    between atoms: _41  and  _42
REMARK   18  A    between atoms: _41  and  _44
REMARK   19  A    between atoms: _44  and  _45
REMARK   20  A    between atoms: _45  and  _46
REMARK   21  A    between atoms: _46  and  _47
REMARK   22  A    between atoms: _47  and  _48
REMARK   23  A    between atoms: _52  and  _54
REMARK   24  A    between atoms: _54  and  _55
REMARK   25  A    between atoms: _54  and  _57
REMARK   26  A    between atoms: _57  and  _58
REMARK   27  A    between atoms: _58  and  _59
REMARK   28  A    between atoms: _62  and  _64
REMARK   29  A    between atoms: _64  and  _65
REMARK   30  A    between atoms: _64  and  _67
REMARK   31  A    between atoms: _67  and  _68
REMARK   32  A    between atoms: _71  and  _73
REMARK   33  A    between atoms: _73  and  _74
REMARK   34  A    between atoms: _73  and  _76
REMARK   35  A    between atoms: _76  and  _77
REMARK   36  A    between atoms: _80  and  _82
REMARK   37  A    between atoms: _82  and  _83
REMARK   38  A    between atoms: _82  and  _85
REMARK   39  A    between atoms: _85  and  _86
REMARK   40  A    between atoms: _89  and  _91
REMARK   41  A    between atoms: _91  and  _92
REMARK   42  A    between atoms: _91  and  _94
REMARK   43  A    between atoms: _94  and  _95
REMARK   44  A    between atoms: _105  and  _107
REMARK   45  A    between atoms: _107  and  _108
REMARK   46  A    between atoms: _107  and  _110
REMARK   47  A    between atoms: _110  and  _111
REMARK   48  A    between atoms: _116  and  _118
REMARK   49  A    between atoms: _118  and  _119
REMARK   50  A    between atoms: _118  and  _121
REMARK   51  A    between atoms: _121  and  _122
REMARK   52  A    between atoms: _122  and  _123
REMARK   53  A    between atoms: _126  and  _128
REMARK   54  A    between atoms: _128  and  _129
REMARK   55  A    between atoms: _128  and  _131
REMARK   56  A    between atoms: _131  and  _132
REMARK   57  A    between atoms: _132  and  _133
REMARK   58  A    between atoms: _133  and  _134
REMARK   59  A    between atoms: _143  and  _145
REMARK   60  A    between atoms: _145  and  _146
REMARK   61  A    between atoms: _145  and  _148
REMARK   62  A    between atoms: _148  and  _149
REMARK   63  A    between atoms: _152  and  _154
REMARK   64  A    between atoms: _154  and  _155
REMARK   65  A    between atoms: _154  and  _157
REMARK   66  A    between atoms: _157  and  _158
REMARK   67  A    between atoms: _163  and  _165
REMARK   68  A    between atoms: _165  and  _166
REMARK   69  A    between atoms: _165  and  _168
REMARK   70  A    between atoms: _168  and  _169
REMARK   71  A    between atoms: _174  and  _175
REMARK   72  A    between atoms: _177  and  _179
REMARK   73  A    between atoms: _179  and  _180
REMARK   74  A    between atoms: _179  and  _182
REMARK   75  A    between atoms: _182  and  _183
REMARK   76  A    between atoms: _183  and  _184
REMARK   77  A    between atoms: _187  and  _189
REMARK   78  A    between atoms: _189  and  _190
REMARK   79  A    between atoms: _189  and  _192
REMARK   80  A    between atoms: _192  and  _193
REMARK   81  A    between atoms: _196  and  _198
REMARK   82  A    between atoms: _198  and  _199
REMARK   83  A    between atoms: _198  and  _201
REMARK   84  A    between atoms: _201  and  _202
REMARK   85  A    between atoms: _208  and  _210
REMARK   86  A    between atoms: _210  and  _211
REMARK   87  A    between atoms: _210  and  _213
REMARK   88  A    between atoms: _213  and  _214
REMARK   89  A    between atoms: _216  and  _218
REMARK   90  A    between atoms: _218  and  _219
REMARK   91  A    between atoms: _218  and  _221
REMARK   92  A    between atoms: _221  and  _222
REMARK   93  A    between atoms: _225  and  _227
REMARK   94  A    between atoms: _227  and  _228
REMARK   95  A    between atoms: _227  and  _230
REMARK   96  A    between atoms: _230  and  _231
REMARK   97  A    between atoms: _241  and  _243
REMARK   98  A    between atoms: _243  and  _244
REMARK   99  A    between atoms: _243  and  _246
REMARK  100  A    between atoms: _246  and  _247
REMARK  101  A    between atoms: _253  and  _254
REMARK  102  A    between atoms: _259  and  _261
REMARK  103  A    between atoms: _261  and  _262
REMARK  104  A    between atoms: _261  and  _264
REMARK  105  A    between atoms: _264  and  _265
REMARK  106  A    between atoms: _270  and  _271
REMARK  107  A    between atoms: _273  and  _275
REMARK  108  A    between atoms: _275  and  _276
REMARK  109  A    between atoms: _275  and  _278
REMARK  110  A    between atoms: _278  and  _279
REMARK  111  A    between atoms: _281  and  _283
REMARK  112  A    between atoms: _283  and  _284
REMARK  113  A    between atoms: _283  and  _286
REMARK  114  A    between atoms: _286  and  _287
REMARK  115  A    between atoms: _290  and  _292
REMARK  116  A    between atoms: _292  and  _293
REMARK  117  A    between atoms: _292  and  _295
REMARK  118  A    between atoms: _295  and  _296
REMARK  119  A    between atoms: _296  and  _297
REMARK  120  A    between atoms: _297  and  _298
REMARK  121  A    between atoms: _307  and  _309
REMARK  122  A    between atoms: _309  and  _310
REMARK  123  A    between atoms: _309  and  _312
REMARK  124  A    between atoms: _312  and  _313
REMARK  125  A    between atoms: _323  and  _325
REMARK  126  A    between atoms: _325  and  _326
REMARK  127  A    between atoms: _325  and  _328
REMARK  128  A    between atoms: _328  and  _329
REMARK                            x       y       z     vdW  Elec       q    Type
REMARK                         _______ _______ _______ _____ _____    ______ ____
ROOT
ATOM      1  O   HOH     1      76.832  87.140  16.935  0.00  0.00    +0.000 OA
ENDROOT
TORSDOF 0
REMARK  Name = ../refined-set-2016/4ufk/4ufk_pocket.pdb
REMARK  128 active torsions:
REMARK  status: ('A' for Active; 'I' for Inactive)
REMARK    1  A    between atoms: _1  and  _3
REMARK    2  A    between atoms: _3  and  _4
REMARK    3  A    between atoms: _3  and  _6
REMARK    4  A    between atoms: _9  and  _11
REMARK    5  A    between atoms: _11  and  _12
REMARK    6  A    between atoms: _14  and  _16
REMARK    7  A    between atoms: _16  and  _17
REMARK    8  A    between atoms: _19  and  _21
REMARK    9  A    between atoms: _21  and  _22
REMARK   10  A    between atoms: _24  and  _26
REMARK   11  A    between atoms: _26  and  _27
REMARK   12  A    between atoms: _30  and  _32
REMARK   13  A    between atoms: _32  and  _33
REMARK   14  A    between atoms: _32  and  _35
REMARK   15  A    between atoms: _35  and  _36
REMARK   16  A    between atoms: _39  and  _41
REMARK   17  A    between atoms: _41  and  _42
REMARK   18  A    between atoms: _41  and  _44
REMARK   19  A    between atoms: _44  and  _45
REMARK   20  A    between atoms: _45  and  _46
REMARK   21  A    between atoms: _46  and  _47
REMARK   22  A    between atoms: _47  and  _48
REMARK   23  A    between atoms: _52  and  _54
REMARK   24  A    between atoms: _54  and  _55
REMARK   25  A    between atoms: _54  and  _57
REMARK   26  A    between atoms: _57  and  _58
REMARK   27  A    between atoms: _58  and  _59
REMARK   28  A    between atoms: _62  and  _64
REMARK   29  A    between atoms: _64  and  _65
REMARK   30  A    between atoms: _64  and  _67
REMARK   31  A    between atoms: _67  and  _68
REMARK   32  A    between atoms: _71  and  _73
REMARK   33  A    between atoms: _73  and  _74
REMARK   34  A    between atoms: _73  and  _76
REMARK   35  A    between atoms: _76  and  _77
REMARK   36  A    between atoms: _80  and  _82
REMARK   37  A    between atoms: _82  and  _83
REMARK   38  A    between atoms: _82  and  _85
REMARK   39  A    between atoms: _85  and  _86
REMARK   40  A    between atoms: _89  and  _91
REMARK   41  A    between atoms: _91  and  _92
REMARK   42  A    between atoms: _91  and  _94
REMARK   43  A    between atoms: _94  and  _95
REMARK   44  A    between atoms: _105  and  _107
REMARK   45  A    between atoms: _107  and  _108
REMARK   46  A    between atoms: _107  and  _110
REMARK   47  A    between atoms: _110  and  _111
REMARK   48  A    between atoms: _116  and  _118
REMARK   49  A    between atoms: _118  and  _119
REMARK   50  A    between atoms: _118  and  _121
REMARK   51  A    between atoms: _121  and  _122
REMARK   52  A    between atoms: _122  and  _123
REMARK   53  A    between atoms: _126  and  _128
REMARK   54  A    between atoms: _128  and  _129
REMARK   55  A    between atoms: _128  and  _131
REMARK   56  A    between atoms: _131  and  _132
REMARK   57  A    between atoms: _132  and  _133
REMARK   58  A    between atoms: _133  and  _134
REMARK   59  A    between atoms: _143  and  _145
REMARK   60  A    between atoms: _145  and  _146
REMARK   61  A    between atoms: _145  and  _148
REMARK   62  A    between atoms: _148  and  _149
REMARK   63  A    between atoms: _152  and  _154
REMARK   64  A    between atoms: _154  and  _155
REMARK   65  A    between atoms: _154  and  _157
REMARK   66  A    between atoms: _157  and  _158
REMARK   67  A    between atoms: _163  and  _165
REMARK   68  A    between atoms: _165  and  _166
REMARK   69  A    between atoms: _165  and  _168
REMARK   70  A    between atoms: _168  and  _169
REMARK   71  A    between atoms: _174  and  _175
REMARK   72  A    between atoms: _177  and  _179
REMARK   73  A    between atoms: _179  and  _180
REMARK   74  A    between atoms: _179  and  _182
REMARK   75  A    between atoms: _182  and  _183
REMARK   76  A    between atoms: _183  and  _184
REMARK   77  A    between atoms: _187  and  _189
REMARK   78  A    between atoms: _189  and  _190
REMARK   79  A    between atoms: _189  and  _192
REMARK   80  A    between atoms: _192  and  _193
REMARK   81  A    between atoms: _196  and  _198
REMARK   82  A    between atoms: _198  and  _199
REMARK   83  A    between atoms: _198  and  _201
REMARK   84  A    between atoms: _201  and  _202
REMARK   85  A    between atoms: _208  and  _210
REMARK   86  A    between atoms: _210  and  _211
REMARK   87  A    between atoms: _210  and  _213
REMARK   88  A    between atoms: _213  and  _214
REMARK   89  A    between atoms: _216  and  _218
REMARK   90  A    between atoms: _218  and  _219
REMARK   91  A    between atoms: _218  and  _221
REMARK   92  A    between atoms: _221  and  _222
REMARK   93  A    between atoms: _225  and  _227
REMARK   94  A    between atoms: _227  and  _228
REMARK   95  A    between atoms: _227  and  _230
REMARK   96  A    between atoms: _230  and  _231
REMARK   97  A    between atoms: _241  and  _243
REMARK   98  A    between atoms: _243  and  _244
REMARK   99  A    between atoms: _243  and  _246
REMARK  100  A    between atoms: _246  and  _247
REMARK  101  A    between atoms: _253  and  _254
REMARK  102  A    between atoms: _259  and  _261
REMARK  103  A    between atoms: _261  and  _262
REMARK  104  A    between atoms: _261  and  _264
REMARK  105  A    between atoms: _264  and  _265
REMARK  106  A    between atoms: _270  and  _271
REMARK  107  A    between atoms: _273  and  _275
REMARK  108  A    between atoms: _275  and  _276
REMARK  109  A    between atoms: _275  and  _278
REMARK  110  A    between atoms: _278  and  _279
REMARK  111  A    between atoms: _281  and  _283
REMARK  112  A    between atoms: _283  and  _284
REMARK  113  A    between atoms: _283  and  _286
REMARK  114  A    between atoms: _286  and  _287
REMARK  115  A    between atoms: _290  and  _292
REMARK  116  A    between atoms: _292  and  _293
REMARK  117  A    between atoms: _292  and  _295
REMARK  118  A    between atoms: _295  and  _296
REMARK  119  A    between atoms: _296  and  _297
REMARK  120  A    between atoms: _297  and  _298
REMARK  121  A    between atoms: _307  and  _309
REMARK  122  A    between atoms: _309  and  _310
REMARK  123  A    between atoms: _309  and  _312
REMARK  124  A    between atoms: _312  and  _313
REMARK  125  A    between atoms: _323  and  _325
REMARK  126  A    between atoms: _325  and  _326
REMARK  127  A    between atoms: _325  and  _328
REMARK  128  A    between atoms: _328  and  _329
REMARK                            x       y       z     vdW  Elec       q    Type
REMARK                         _______ _______ _______ _____ _____    ______ ____
ROOT
ATOM      1  O   HOH     1      75.728  87.649  13.961  0.00  0.00    +0.000 OA
ENDROOT
TORSDOF 0
REMARK  Name = ../refined-set-2016/4ufk/4ufk_pocket.pdb
REMARK  128 active torsions:
REMARK  status: ('A' for Active; 'I' for Inactive)
REMARK    1  A    between atoms: _1  and  _3
REMARK    2  A    between atoms: _3  and  _4
REMARK    3  A    between atoms: _3  and  _6
REMARK    4  A    between atoms: _9  and  _11
REMARK    5  A    between atoms: _11  and  _12
REMARK    6  A    between atoms: _14  and  _16
REMARK    7  A    between atoms: _16  and  _17
REMARK    8  A    between atoms: _19  and  _21
REMARK    9  A    between atoms: _21  and  _22
REMARK   10  A    between atoms: _24  and  _26
REMARK   11  A    between atoms: _26  and  _27
REMARK   12  A    between atoms: _30  and  _32
REMARK   13  A    between atoms: _32  and  _33
REMARK   14  A    between atoms: _32  and  _35
REMARK   15  A    between atoms: _35  and  _36
REMARK   16  A    between atoms: _39  and  _41
REMARK   17  A    between atoms: _41  and  _42
REMARK   18  A    between atoms: _41  and  _44
REMARK   19  A    between atoms: _44  and  _45
REMARK   20  A    between atoms: _45  and  _46
REMARK   21  A    between atoms: _46  and  _47
REMARK   22  A    between atoms: _47  and  _48
REMARK   23  A    between atoms: _52  and  _54
REMARK   24  A    between atoms: _54  and  _55
REMARK   25  A    between atoms: _54  and  _57
REMARK   26  A    between atoms: _57  and  _58
REMARK   27  A    between atoms: _58  and  _59
REMARK   28  A    between atoms: _62  and  _64
REMARK   29  A    between atoms: _64  and  _65
REMARK   30  A    between atoms: _64  and  _67
REMARK   31  A    between atoms: _67  and  _68
REMARK   32  A    between atoms: _71  and  _73
REMARK   33  A    between atoms: _73  and  _74
REMARK   34  A    between atoms: _73  and  _76
REMARK   35  A    between atoms: _76  and  _77
REMARK   36  A    between atoms: _80  and  _82
REMARK   37  A    between atoms: _82  and  _83
REMARK   38  A    between atoms: _82  and  _85
REMARK   39  A    between atoms: _85  and  _86
REMARK   40  A    between atoms: _89  and  _91
REMARK   41  A    between atoms: _91  and  _92
REMARK   42  A    between atoms: _91  and  _94
REMARK   43  A    between atoms: _94  and  _95
REMARK   44  A    between atoms: _105  and  _107
REMARK   45  A    between atoms: _107  and  _108
REMARK   46  A    between atoms: _107  and  _110
REMARK   47  A    between atoms: _110  and  _111
REMARK   48  A    between atoms: _116  and  _118
REMARK   49  A    between atoms: _118  and  _119
REMARK   50  A    between atoms: _118  and  _121
REMARK   51  A    between atoms: _121  and  _122
REMARK   52  A    between atoms: _122  and  _123
REMARK   53  A    between atoms: _126  and  _128
REMARK   54  A    between atoms: _128  and  _129
REMARK   55  A    between atoms: _128  and  _131
REMARK   56  A    between atoms: _131  and  _132
REMARK   57  A    between atoms: _132  and  _133
REMARK   58  A    between atoms: _133  and  _134
REMARK   59  A    between atoms: _143  and  _145
REMARK   60  A    between atoms: _145  and  _146
REMARK   61  A    between atoms: _145  and  _148
REMARK   62  A    between atoms: _148  and  _149
REMARK   63  A    between atoms: _152  and  _154
REMARK   64  A    between atoms: _154  and  _155
REMARK   65  A    between atoms: _154  and  _157
REMARK   66  A    between atoms: _157  and  _158
REMARK   67  A    between atoms: _163  and  _165
REMARK   68  A    between atoms: _165  and  _166
REMARK   69  A    between atoms: _165  and  _168
REMARK   70  A    between atoms: _168  and  _169
REMARK   71  A    between atoms: _174  and  _175
REMARK   72  A    between atoms: _177  and  _179
REMARK   73  A    between atoms: _179  and  _180
REMARK   74  A    between atoms: _179  and  _182
REMARK   75  A    between atoms: _182  and  _183
REMARK   76  A    between atoms: _183  and  _184
REMARK   77  A    between atoms: _187  and  _189
REMARK   78  A    between atoms: _189  and  _190
REMARK   79  A    between atoms: _189  and  _192
REMARK   80  A    between atoms: _192  and  _193
REMARK   81  A    between atoms: _196  and  _198
REMARK   82  A    between atoms: _198  and  _199
REMARK   83  A    between atoms: _198  and  _201
REMARK   84  A    between atoms: _201  and  _202
REMARK   85  A    between atoms: _208  and  _210
REMARK   86  A    between atoms: _210  and  _211
REMARK   87  A    between atoms: _210  and  _213
REMARK   88  A    between atoms: _213  and  _214
REMARK   89  A    between atoms: _216  and  _218
REMARK   90  A    between atoms: _218  and  _219
REMARK   91  A    between atoms: _218  and  _221
REMARK   92  A    between atoms: _221  and  _222
REMARK   93  A    between atoms: _225  and  _227
REMARK   94  A    between atoms: _227  and  _228
REMARK   95  A    between atoms: _227  and  _230
REMARK   96  A    between atoms: _230  and  _231
REMARK   97  A    between atoms: _241  and  _243
REMARK   98  A    between atoms: _243  and  _244
REMARK   99  A    between atoms: _243  and  _246
REMARK  100  A    between atoms: _246  and  _247
REMARK  101  A    between atoms: _253  and  _254
REMARK  102  A    between atoms: _259  and  _261
REMARK  103  A    between atoms: _261  and  _262
REMARK  104  A    between atoms: _261  and  _264
REMARK  105  A    between atoms: _264  and  _265
REMARK  106  A    between atoms: _270  and  _271
REMARK  107  A    between atoms: _273  and  _275
REMARK  108  A    between atoms: _275  and  _276
REMARK  109  A    between atoms: _275  and  _278
REMARK  110  A    between atoms: _278  and  _279
REMARK  111  A    between atoms: _281  and  _283
REMARK  112  A    between atoms: _283  and  _284
REMARK  113  A    between atoms: _283  and  _286
REMARK  114  A    between atoms: _286  and  _287
REMARK  115  A    between atoms: _290  and  _292
REMARK  116  A    between atoms: _292  and  _293
REMARK  117  A    between atoms: _292  and  _295
REMARK  118  A    between atoms: _295  and  _296
REMARK  119  A    between atoms: _296  and  _297
REMARK  120  A    between atoms: _297  and  _298
REMARK  121  A    between atoms: _307  and  _309
REMARK  122  A    between atoms: _309  and  _310
REMARK  123  A    between atoms: _309  and  _312
REMARK  124  A    between atoms: _312  and  _313
REMARK  125  A    between atoms: _323  and  _325
REMARK  126  A    between atoms: _325  and  _326
REMARK  127  A    between atoms: _325  and  _328
REMARK  128  A    between atoms: _328  and  _329
REMARK                            x       y       z     vdW  Elec       q    Type
REMARK                         _______ _______ _______ _____ _____    ______ ____
ROOT
ATOM      1  O   HOH     1      83.390  90.781  11.134  0.00  0.00    +0.000 OA
ENDROOT
TORSDOF 0
REMARK  Name = ../refined-set-2016/4ufk/4ufk_pocket.pdb
REMARK  128 active torsions:
REMARK  status: ('A' for Active; 'I' for Inactive)
REMARK    1  A    between atoms: _1  and  _3
REMARK    2  A    between atoms: _3  and  _4
REMARK    3  A    between atoms: _3  and  _6
REMARK    4  A    between atoms: _9  and  _11
REMARK    5  A    between atoms: _11  and  _12
REMARK    6  A    between atoms: _14  and  _16
REMARK    7  A    between atoms: _16  and  _17
REMARK    8  A    between atoms: _19  and  _21
REMARK    9  A    between atoms: _21  and  _22
REMARK   10  A    between atoms: _24  and  _26
REMARK   11  A    between atoms: _26  and  _27
REMARK   12  A    between atoms: _30  and  _32
REMARK   13  A    between atoms: _32  and  _33
REMARK   14  A    between atoms: _32  and  _35
REMARK   15  A    between atoms: _35  and  _36
REMARK   16  A    between atoms: _39  and  _41
REMARK   17  A    between atoms: _41  and  _42
REMARK   18  A    between atoms: _41  and  _44
REMARK   19  A    between atoms: _44  and  _45
REMARK   20  A    between atoms: _45  and  _46
REMARK   21  A    between atoms: _46  and  _47
REMARK   22  A    between atoms: _47  and  _48
REMARK   23  A    between atoms: _52  and  _54
REMARK   24  A    between atoms: _54  and  _55
REMARK   25  A    between atoms: _54  and  _57
REMARK   26  A    between atoms: _57  and  _58
REMARK   27  A    between atoms: _58  and  _59
REMARK   28  A    between atoms: _62  and  _64
REMARK   29  A    between atoms: _64  and  _65
REMARK   30  A    between atoms: _64  and  _67
REMARK   31  A    between atoms: _67  and  _68
REMARK   32  A    between atoms: _71  and  _73
REMARK   33  A    between atoms: _73  and  _74
REMARK   34  A    between atoms: _73  and  _76
REMARK   35  A    between atoms: _76  and  _77
REMARK   36  A    between atoms: _80  and  _82
REMARK   37  A    between atoms: _82  and  _83
REMARK   38  A    between atoms: _82  and  _85
REMARK   39  A    between atoms: _85  and  _86
REMARK   40  A    between atoms: _89  and  _91
REMARK   41  A    between atoms: _91  and  _92
REMARK   42  A    between atoms: _91  and  _94
REMARK   43  A    between atoms: _94  and  _95
REMARK   44  A    between atoms: _105  and  _107
REMARK   45  A    between atoms: _107  and  _108
REMARK   46  A    between atoms: _107  and  _110
REMARK   47  A    between atoms: _110  and  _111
REMARK   48  A    between atoms: _116  and  _118
REMARK   49  A    between atoms: _118  and  _119
REMARK   50  A    between atoms: _118  and  _121
REMARK   51  A    between atoms: _121  and  _122
REMARK   52  A    between atoms: _122  and  _123
REMARK   53  A    between atoms: _126  and  _128
REMARK   54  A    between atoms: _128  and  _129
REMARK   55  A    between atoms: _128  and  _131
REMARK   56  A    between atoms: _131  and  _132
REMARK   57  A    between atoms: _132  and  _133
REMARK   58  A    between atoms: _133  and  _134
REMARK   59  A    between atoms: _143  and  _145
REMARK   60  A    between atoms: _145  and  _146
REMARK   61  A    between atoms: _145  and  _148
REMARK   62  A    between atoms: _148  and  _149
REMARK   63  A    between atoms: _152  and  _154
REMARK   64  A    between atoms: _154  and  _155
REMARK   65  A    between atoms: _154  and  _157
REMARK   66  A    between atoms: _157  and  _158
REMARK   67  A    between atoms: _163  and  _165
REMARK   68  A    between atoms: _165  and  _166
REMARK   69  A    between atoms: _165  and  _168
REMARK   70  A    between atoms: _168  and  _169
REMARK   71  A    between atoms: _174  and  _175
REMARK   72  A    between atoms: _177  and  _179
REMARK   73  A    between atoms: _179  and  _180
REMARK   74  A    between atoms: _179  and  _182
REMARK   75  A    between atoms: _182  and  _183
REMARK   76  A    between atoms: _183  and  _184
REMARK   77  A    between atoms: _187  and  _189
REMARK   78  A    between atoms: _189  and  _190
REMARK   79  A    between atoms: _189  and  _192
REMARK   80  A    between atoms: _192  and  _193
REMARK   81  A    between atoms: _196  and  _198
REMARK   82  A    between atoms: _198  and  _199
REMARK   83  A    between atoms: _198  and  _201
REMARK   84  A    between atoms: _201  and  _202
REMARK   85  A    between atoms: _208  and  _210
REMARK   86  A    between atoms: _210  and  _211
REMARK   87  A    between atoms: _210  and  _213
REMARK   88  A    between atoms: _213  and  _214
REMARK   89  A    between atoms: _216  and  _218
REMARK   90  A    between atoms: _218  and  _219
REMARK   91  A    between atoms: _218  and  _221
REMARK   92  A    between atoms: _221  and  _222
REMARK   93  A    between atoms: _225  and  _227
REMARK   94  A    between atoms: _227  and  _228
REMARK   95  A    between atoms: _227  and  _230
REMARK   96  A    between atoms: _230  and  _231
REMARK   97  A    between atoms: _241  and  _243
REMARK   98  A    between atoms: _243  and  _244
REMARK   99  A    between atoms: _243  and  _246
REMARK  100  A    between atoms: _246  and  _247
REMARK  101  A    between atoms: _253  and  _254
REMARK  102  A    between atoms: _259  and  _261
REMARK  103  A    between atoms: _261  and  _262
REMARK  104  A    between atoms: _261  and  _264
REMARK  105  A    between atoms: _264  and  _265
REMARK  106  A    between atoms: _270  and  _271
REMARK  107  A    between atoms: _273  and  _275
REMARK  108  A    between atoms: _275  and  _276
REMARK  109  A    between atoms: _275  and  _278
REMARK  110  A    between atoms: _278  and  _279
REMARK  111  A    between atoms: _281  and  _283
REMARK  112  A    between atoms: _283  and  _284
REMARK  113  A    between atoms: _283  and  _286
REMARK  114  A    between atoms: _286  and  _287
REMARK  115  A    between atoms: _290  and  _292
REMARK  116  A    between atoms: _292  and  _293
REMARK  117  A    between atoms: _292  and  _295
REMARK  118  A    between atoms: _295  and  _296
REMARK  119  A    between atoms: _296  and  _297
REMARK  120  A    between atoms: _297  and  _298
REMARK  121  A    between atoms: _307  and  _309
REMARK  122  A    between atoms: _309  and  _310
REMARK  123  A    between atoms: _309  and  _312
REMARK  124  A    between atoms: _312  and  _313
REMARK  125  A    between atoms: _323  and  _325
REMARK  126  A    between atoms: _325  and  _326
REMARK  127  A    between atoms: _325  and  _328
REMARK  128  A    between atoms: _328  and  _329
REMARK                            x       y       z     vdW  Elec       q    Type
REMARK                         _______ _______ _______ _____ _____    ______ ____
ROOT
ATOM      1  O   HOH     1      87.049  87.854  16.964  0.00  0.00    +0.000 OA
ENDROOT
TORSDOF 0
