REMARK  Name = ../refined-set-2016/3tfp/3tfp_pocket.pdb
REMARK  246 active torsions:
REMARK  status: ('A' for Active; 'I' for Inactive)
REMARK    1  A    between atoms: _1  and  _3
REMARK    2  A    between atoms: _3  and  _4
REMARK    3  A    between atoms: _3  and  _6
REMARK    4  A    between atoms: _6  and  _7
REMARK    5  A    between atoms: _10  and  _12
REMARK    6  A    between atoms: _12  and  _13
REMARK    7  A    between atoms: _12  and  _15
REMARK    8  A    between atoms: _15  and  _16
REMARK    9  A    between atoms: _16  and  _17
REMARK   10  A    between atoms: _19  and  _21
REMARK   11  A    between atoms: _21  and  _22
REMARK   12  A    between atoms: _21  and  _24
REMARK   13  A    between atoms: _24  and  _25
REMARK   14  A    between atoms: _30  and  _32
REMARK   15  A    between atoms: _32  and  _33
REMARK   16  A    between atoms: _32  and  _35
REMARK   17  A    between atoms: _35  and  _36
REMARK   18  A    between atoms: _38  and  _40
REMARK   19  A    between atoms: _40  and  _41
REMARK   20  A    between atoms: _40  and  _43
REMARK   21  A    between atoms: _43  and  _44
REMARK   22  A    between atoms: _50  and  _52
REMARK   23  A    between atoms: _52  and  _53
REMARK   24  A    between atoms: _52  and  _55
REMARK   25  A    between atoms: _55  and  _56
REMARK   26  A    between atoms: _58  and  _60
REMARK   27  A    between atoms: _60  and  _61
REMARK   28  A    between atoms: _60  and  _63
REMARK   29  A    between atoms: _63  and  _64
REMARK   30  A    between atoms: _70  and  _72
REMARK   31  A    between atoms: _72  and  _73
REMARK   32  A    between atoms: _76  and  _78
REMARK   33  A    between atoms: _78  and  _79
REMARK   34  A    between atoms: _78  and  _81
REMARK   35  A    between atoms: _84  and  _86
REMARK   36  A    between atoms: _86  and  _87
REMARK   37  A    between atoms: _86  and  _89
REMARK   38  A    between atoms: _89  and  _90
REMARK   39  A    between atoms: _100  and  _102
REMARK   40  A    between atoms: _102  and  _103
REMARK   41  A    between atoms: _106  and  _108
REMARK   42  A    between atoms: _108  and  _109
REMARK   43  A    between atoms: _108  and  _111
REMARK   44  A    between atoms: _111  and  _112
REMARK   45  A    between atoms: _115  and  _117
REMARK   46  A    between atoms: _117  and  _118
REMARK   47  A    between atoms: _117  and  _120
REMARK   48  A    between atoms: _120  and  _121
REMARK   49  A    between atoms: _126  and  _127
REMARK   50  A    between atoms: _129  and  _131
REMARK   51  A    between atoms: _131  and  _132
REMARK   52  A    between atoms: _135  and  _137
REMARK   53  A    between atoms: _137  and  _138
REMARK   54  A    between atoms: _137  and  _140
REMARK   55  A    between atoms: _143  and  _145
REMARK   56  A    between atoms: _145  and  _146
REMARK   57  A    between atoms: _145  and  _148
REMARK   58  A    between atoms: _150  and  _152
REMARK   59  A    between atoms: _152  and  _153
REMARK   60  A    between atoms: _152  and  _155
REMARK   61  A    between atoms: _155  and  _156
REMARK   62  A    between atoms: _156  and  _157
REMARK   63  A    between atoms: _157  and  _158
REMARK   64  A    between atoms: _167  and  _169
REMARK   65  A    between atoms: _169  and  _170
REMARK   66  A    between atoms: _169  and  _172
REMARK   67  A    between atoms: _172  and  _173
REMARK   68  A    between atoms: _173  and  _174
REMARK   69  A    between atoms: _174  and  _175
REMARK   70  A    between atoms: _175  and  _176
REMARK   71  A    between atoms: _180  and  _182
REMARK   72  A    between atoms: _182  and  _183
REMARK   73  A    between atoms: _182  and  _185
REMARK   74  A    between atoms: _185  and  _186
REMARK   75  A    between atoms: _189  and  _191
REMARK   76  A    between atoms: _191  and  _192
REMARK   77  A    between atoms: _191  and  _194
REMARK   78  A    between atoms: _194  and  _195
REMARK   79  A    between atoms: _198  and  _200
REMARK   80  A    between atoms: _200  and  _201
REMARK   81  A    between atoms: _200  and  _203
REMARK   82  A    between atoms: _203  and  _204
REMARK   83  A    between atoms: _207  and  _209
REMARK   84  A    between atoms: _209  and  _210
REMARK   85  A    between atoms: _209  and  _212
REMARK   86  A    between atoms: _212  and  _213
REMARK   87  A    between atoms: _219  and  _221
REMARK   88  A    between atoms: _221  and  _222
REMARK   89  A    between atoms: _221  and  _224
REMARK   90  A    between atoms: _224  and  _225
REMARK   91  A    between atoms: _228  and  _230
REMARK   92  A    between atoms: _230  and  _231
REMARK   93  A    between atoms: _230  and  _233
REMARK   94  A    between atoms: _233  and  _234
REMARK   95  A    between atoms: _237  and  _239
REMARK   96  A    between atoms: _239  and  _240
REMARK   97  A    between atoms: _239  and  _242
REMARK   98  A    between atoms: _242  and  _243
REMARK   99  A    between atoms: _246  and  _248
REMARK  100  A    between atoms: _248  and  _249
REMARK  101  A    between atoms: _248  and  _251
REMARK  102  A    between atoms: _254  and  _256
REMARK  103  A    between atoms: _256  and  _257
REMARK  104  A    between atoms: _256  and  _259
REMARK  105  A    between atoms: _259  and  _260
REMARK  106  A    between atoms: _265  and  _266
REMARK  107  A    between atoms: _268  and  _270
REMARK  108  A    between atoms: _270  and  _271
REMARK  109  A    between atoms: _270  and  _273
REMARK  110  A    between atoms: _275  and  _277
REMARK  111  A    between atoms: _277  and  _278
REMARK  112  A    between atoms: _280  and  _282
REMARK  113  A    between atoms: _282  and  _283
REMARK  114  A    between atoms: _282  and  _285
REMARK  115  A    between atoms: _288  and  _290
REMARK  116  A    between atoms: _290  and  _291
REMARK  117  A    between atoms: _294  and  _296
REMARK  118  A    between atoms: _296  and  _297
REMARK  119  A    between atoms: _299  and  _301
REMARK  120  A    between atoms: _301  and  _302
REMARK  121  A    between atoms: _301  and  _304
REMARK  122  A    between atoms: _304  and  _305
REMARK  123  A    between atoms: _308  and  _310
REMARK  124  A    between atoms: _310  and  _311
REMARK  125  A    between atoms: _310  and  _313
REMARK  126  A    between atoms: _316  and  _318
REMARK  127  A    between atoms: _318  and  _319
REMARK  128  A    between atoms: _321  and  _323
REMARK  129  A    between atoms: _323  and  _324
REMARK  130  A    between atoms: _323  and  _326
REMARK  131  A    between atoms: _326  and  _327
REMARK  132  A    between atoms: _327  and  _328
REMARK  133  A    between atoms: _331  and  _333
REMARK  134  A    between atoms: _333  and  _334
REMARK  135  A    between atoms: _333  and  _336
REMARK  136  A    between atoms: _339  and  _341
REMARK  137  A    between atoms: _341  and  _342
REMARK  138  A    between atoms: _341  and  _344
REMARK  139  A    between atoms: _344  and  _345
REMARK  140  A    between atoms: _348  and  _350
REMARK  141  A    between atoms: _350  and  _351
REMARK  142  A    between atoms: _350  and  _353
REMARK  143  A    between atoms: _353  and  _354
REMARK  144  A    between atoms: _357  and  _359
REMARK  145  A    between atoms: _359  and  _360
REMARK  146  A    between atoms: _359  and  _362
REMARK  147  A    between atoms: _362  and  _363
REMARK  148  A    between atoms: _366  and  _368
REMARK  149  A    between atoms: _368  and  _369
REMARK  150  A    between atoms: _368  and  _371
REMARK  151  A    between atoms: _371  and  _372
REMARK  152  A    between atoms: _377  and  _378
REMARK  153  A    between atoms: _380  and  _382
REMARK  154  A    between atoms: _382  and  _383
REMARK  155  A    between atoms: _382  and  _385
REMARK  156  A    between atoms: _388  and  _390
REMARK  157  A    between atoms: _390  and  _391
REMARK  158  A    between atoms: _394  and  _396
REMARK  159  A    between atoms: _396  and  _397
REMARK  160  A    between atoms: _396  and  _399
REMARK  161  A    between atoms: _399  and  _400
REMARK  162  A    between atoms: _400  and  _401
REMARK  163  A    between atoms: _401  and  _402
REMARK  164  A    between atoms: _411  and  _413
REMARK  165  A    between atoms: _413  and  _414
REMARK  166  A    between atoms: _413  and  _416
REMARK  167  A    between atoms: _416  and  _417
REMARK  168  A    between atoms: _417  and  _418
REMARK  169  A    between atoms: _418  and  _419
REMARK  170  A    between atoms: _428  and  _430
REMARK  171  A    between atoms: _430  and  _431
REMARK  172  A    between atoms: _430  and  _433
REMARK  173  A    between atoms: _433  and  _434
REMARK  174  A    between atoms: _437  and  _439
REMARK  175  A    between atoms: _439  and  _440
REMARK  176  A    between atoms: _442  and  _444
REMARK  177  A    between atoms: _444  and  _445
REMARK  178  A    between atoms: _444  and  _447
REMARK  179  A    between atoms: _447  and  _448
REMARK  180  A    between atoms: _448  and  _449
REMARK  181  A    between atoms: _452  and  _454
REMARK  182  A    between atoms: _454  and  _455
REMARK  183  A    between atoms: _454  and  _457
REMARK  184  A    between atoms: _457  and  _458
REMARK  185  A    between atoms: _460  and  _462
REMARK  186  A    between atoms: _462  and  _463
REMARK  187  A    between atoms: _462  and  _465
REMARK  188  A    between atoms: _465  and  _466
REMARK  189  A    between atoms: _469  and  _471
REMARK  190  A    between atoms: _471  and  _472
REMARK  191  A    between atoms: _471  and  _474
REMARK  192  A    between atoms: _474  and  _475
REMARK  193  A    between atoms: _475  and  _476
REMARK  194  A    between atoms: _481  and  _483
REMARK  195  A    between atoms: _483  and  _484
REMARK  196  A    between atoms: _483  and  _486
REMARK  197  A    between atoms: _486  and  _487
REMARK  198  A    between atoms: _492  and  _494
REMARK  199  A    between atoms: _494  and  _495
REMARK  200  A    between atoms: _494  and  _497
REMARK  201  A    between atoms: _497  and  _498
REMARK  202  A    between atoms: _501  and  _503
REMARK  203  A    between atoms: _503  and  _504
REMARK  204  A    between atoms: _503  and  _506
REMARK  205  A    between atoms: _506  and  _507
REMARK  206  A    between atoms: _507  and  _508
REMARK  207  A    between atoms: _508  and  _509
REMARK  208  A    between atoms: _518  and  _520
REMARK  209  A    between atoms: _520  and  _521
REMARK  210  A    between atoms: _520  and  _523
REMARK  211  A    between atoms: _523  and  _524
REMARK  212  A    between atoms: _527  and  _529
REMARK  213  A    between atoms: _529  and  _530
REMARK  214  A    between atoms: _529  and  _532
REMARK  215  A    between atoms: _532  and  _533
REMARK  216  A    between atoms: _536  and  _538
REMARK  217  A    between atoms: _538  and  _539
REMARK  218  A    between atoms: _538  and  _541
REMARK  219  A    between atoms: _541  and  _542
REMARK  220  A    between atoms: _547  and  _548
REMARK  221  A    between atoms: _550  and  _552
REMARK  222  A    between atoms: _552  and  _553
REMARK  223  A    between atoms: _552  and  _555
REMARK  224  A    between atoms: _558  and  _560
REMARK  225  A    between atoms: _560  and  _561
REMARK  226  A    between atoms: _560  and  _563
REMARK  227  A    between atoms: _563  and  _564
REMARK  228  A    between atoms: _570  and  _572
REMARK  229  A    between atoms: _572  and  _573
REMARK  230  A    between atoms: _572  and  _575
REMARK  231  A    between atoms: _575  and  _576
REMARK  232  A    between atoms: _579  and  _581
REMARK  233  A    between atoms: _581  and  _582
REMARK  234  A    between atoms: _585  and  _587
REMARK  235  A    between atoms: _587  and  _588
REMARK  236  A    between atoms: _591  and  _593
REMARK  237  A    between atoms: _593  and  _594
REMARK  238  A    between atoms: _593  and  _596
REMARK  239  A    between atoms: _596  and  _597
REMARK  240  A    between atoms: _602  and  _603
REMARK  241  A    between atoms: _605  and  _607
REMARK  242  A    between atoms: _607  and  _608
REMARK  243  A    between atoms: _607  and  _610
REMARK  244  A    between atoms: _610  and  _611
REMARK  245  A    between atoms: _611  and  _612
REMARK  246  A    between atoms: _612  and  _613
REMARK                            x       y       z     vdW  Elec       q    Type
REMARK                         _______ _______ _______ _____ _____    ______ ____
ROOT
ATOM      1  C   ILE A   1      -6.436 -27.783  -2.848  0.00  0.00    +0.238 C 
ATOM      2  O   ILE A   1      -6.846 -26.972  -2.010  0.00  0.00    -0.274 OA
ATOM      3  N   MET A   2      -5.148 -28.047  -3.017  0.00  0.00    -0.298 N 
ATOM      4  H   MET A   2      -4.853 -28.704  -3.767  0.00  0.00    +0.150 HD
ENDROOT
BRANCH   1   5
ATOM      5  CA  ILE A   1      -7.403 -28.520  -3.779  0.00  0.00    +0.145 C 
BRANCH   5   6
ATOM      6  N   ILE A   1      -6.866 -28.599  -5.134  0.00  0.00    -0.238 NA
ATOM      7  H   ILE A   1      -6.651 -29.530  -5.544  0.00  0.00    +0.142 HD
ENDBRANCH   5   6
BRANCH   5   8
ATOM      8  CB  ILE A   1      -7.744 -29.918  -3.233  0.00  0.00    +0.025 C 
ATOM      9  CG2 ILE A   1      -7.942 -29.880  -1.726  0.00  0.00    +0.002 C 
BRANCH   8  10
ATOM     10  CG1 ILE A   1      -9.019 -30.443  -3.901  0.00  0.00    +0.002 C 
ATOM     11  CD1 ILE A   1      -9.290 -31.911  -3.627  0.00  0.00    +0.000 C 
ENDBRANCH   8  10
ENDBRANCH   5   8
ENDBRANCH   1   5
BRANCH   3  12
ATOM     12  CA  MET A   2      -4.139 -27.428  -2.165  0.00  0.00    +0.138 C 
BRANCH  12  13
ATOM     13  C   MET A   2      -3.981 -25.938  -2.444  0.00  0.00    +0.227 C 
ATOM     14  O   MET A   2      -3.964 -25.133  -1.520  0.00  0.00    -0.286 OA
ENDBRANCH  12  13
BRANCH  12  15
ATOM     15  CB  MET A   2      -2.791 -28.130  -2.323  0.00  0.00    +0.039 C 
BRANCH  15  16
ATOM     16  CG  MET A   2      -1.756 -27.649  -1.331  0.00  0.00    +0.060 C 
BRANCH  16  17
ATOM     17  SD  MET A   2      -0.167 -28.453  -1.579  0.00  0.00    -0.139 S 
ATOM     18  CE  MET A   2       0.274 -27.712  -3.158  0.00  0.00    +0.069 C 
ENDBRANCH  16  17
ENDBRANCH  15  16
ENDBRANCH  12  15
ENDBRANCH   3  12
TORSDOF 9
REMARK  Name = ../refined-set-2016/3tfp/3tfp_pocket.pdb
REMARK  246 active torsions:
REMARK  status: ('A' for Active; 'I' for Inactive)
REMARK    1  A    between atoms: _1  and  _3
REMARK    2  A    between atoms: _3  and  _4
REMARK    3  A    between atoms: _3  and  _6
REMARK    4  A    between atoms: _6  and  _7
REMARK    5  A    between atoms: _10  and  _12
REMARK    6  A    between atoms: _12  and  _13
REMARK    7  A    between atoms: _12  and  _15
REMARK    8  A    between atoms: _15  and  _16
REMARK    9  A    between atoms: _16  and  _17
REMARK   10  A    between atoms: _19  and  _21
REMARK   11  A    between atoms: _21  and  _22
REMARK   12  A    between atoms: _21  and  _24
REMARK   13  A    between atoms: _24  and  _25
REMARK   14  A    between atoms: _30  and  _32
REMARK   15  A    between atoms: _32  and  _33
REMARK   16  A    between atoms: _32  and  _35
REMARK   17  A    between atoms: _35  and  _36
REMARK   18  A    between atoms: _38  and  _40
REMARK   19  A    between atoms: _40  and  _41
REMARK   20  A    between atoms: _40  and  _43
REMARK   21  A    between atoms: _43  and  _44
REMARK   22  A    between atoms: _50  and  _52
REMARK   23  A    between atoms: _52  and  _53
REMARK   24  A    between atoms: _52  and  _55
REMARK   25  A    between atoms: _55  and  _56
REMARK   26  A    between atoms: _58  and  _60
REMARK   27  A    between atoms: _60  and  _61
REMARK   28  A    between atoms: _60  and  _63
REMARK   29  A    between atoms: _63  and  _64
REMARK   30  A    between atoms: _70  and  _72
REMARK   31  A    between atoms: _72  and  _73
REMARK   32  A    between atoms: _76  and  _78
REMARK   33  A    between atoms: _78  and  _79
REMARK   34  A    between atoms: _78  and  _81
REMARK   35  A    between atoms: _84  and  _86
REMARK   36  A    between atoms: _86  and  _87
REMARK   37  A    between atoms: _86  and  _89
REMARK   38  A    between atoms: _89  and  _90
REMARK   39  A    between atoms: _100  and  _102
REMARK   40  A    between atoms: _102  and  _103
REMARK   41  A    between atoms: _106  and  _108
REMARK   42  A    between atoms: _108  and  _109
REMARK   43  A    between atoms: _108  and  _111
REMARK   44  A    between atoms: _111  and  _112
REMARK   45  A    between atoms: _115  and  _117
REMARK   46  A    between atoms: _117  and  _118
REMARK   47  A    between atoms: _117  and  _120
REMARK   48  A    between atoms: _120  and  _121
REMARK   49  A    between atoms: _126  and  _127
REMARK   50  A    between atoms: _129  and  _131
REMARK   51  A    between atoms: _131  and  _132
REMARK   52  A    between atoms: _135  and  _137
REMARK   53  A    between atoms: _137  and  _138
REMARK   54  A    between atoms: _137  and  _140
REMARK   55  A    between atoms: _143  and  _145
REMARK   56  A    between atoms: _145  and  _146
REMARK   57  A    between atoms: _145  and  _148
REMARK   58  A    between atoms: _150  and  _152
REMARK   59  A    between atoms: _152  and  _153
REMARK   60  A    between atoms: _152  and  _155
REMARK   61  A    between atoms: _155  and  _156
REMARK   62  A    between atoms: _156  and  _157
REMARK   63  A    between atoms: _157  and  _158
REMARK   64  A    between atoms: _167  and  _169
REMARK   65  A    between atoms: _169  and  _170
REMARK   66  A    between atoms: _169  and  _172
REMARK   67  A    between atoms: _172  and  _173
REMARK   68  A    between atoms: _173  and  _174
REMARK   69  A    between atoms: _174  and  _175
REMARK   70  A    between atoms: _175  and  _176
REMARK   71  A    between atoms: _180  and  _182
REMARK   72  A    between atoms: _182  and  _183
REMARK   73  A    between atoms: _182  and  _185
REMARK   74  A    between atoms: _185  and  _186
REMARK   75  A    between atoms: _189  and  _191
REMARK   76  A    between atoms: _191  and  _192
REMARK   77  A    between atoms: _191  and  _194
REMARK   78  A    between atoms: _194  and  _195
REMARK   79  A    between atoms: _198  and  _200
REMARK   80  A    between atoms: _200  and  _201
REMARK   81  A    between atoms: _200  and  _203
REMARK   82  A    between atoms: _203  and  _204
REMARK   83  A    between atoms: _207  and  _209
REMARK   84  A    between atoms: _209  and  _210
REMARK   85  A    between atoms: _209  and  _212
REMARK   86  A    between atoms: _212  and  _213
REMARK   87  A    between atoms: _219  and  _221
REMARK   88  A    between atoms: _221  and  _222
REMARK   89  A    between atoms: _221  and  _224
REMARK   90  A    between atoms: _224  and  _225
REMARK   91  A    between atoms: _228  and  _230
REMARK   92  A    between atoms: _230  and  _231
REMARK   93  A    between atoms: _230  and  _233
REMARK   94  A    between atoms: _233  and  _234
REMARK   95  A    between atoms: _237  and  _239
REMARK   96  A    between atoms: _239  and  _240
REMARK   97  A    between atoms: _239  and  _242
REMARK   98  A    between atoms: _242  and  _243
REMARK   99  A    between atoms: _246  and  _248
REMARK  100  A    between atoms: _248  and  _249
REMARK  101  A    between atoms: _248  and  _251
REMARK  102  A    between atoms: _254  and  _256
REMARK  103  A    between atoms: _256  and  _257
REMARK  104  A    between atoms: _256  and  _259
REMARK  105  A    between atoms: _259  and  _260
REMARK  106  A    between atoms: _265  and  _266
REMARK  107  A    between atoms: _268  and  _270
REMARK  108  A    between atoms: _270  and  _271
REMARK  109  A    between atoms: _270  and  _273
REMARK  110  A    between atoms: _275  and  _277
REMARK  111  A    between atoms: _277  and  _278
REMARK  112  A    between atoms: _280  and  _282
REMARK  113  A    between atoms: _282  and  _283
REMARK  114  A    between atoms: _282  and  _285
REMARK  115  A    between atoms: _288  and  _290
REMARK  116  A    between atoms: _290  and  _291
REMARK  117  A    between atoms: _294  and  _296
REMARK  118  A    between atoms: _296  and  _297
REMARK  119  A    between atoms: _299  and  _301
REMARK  120  A    between atoms: _301  and  _302
REMARK  121  A    between atoms: _301  and  _304
REMARK  122  A    between atoms: _304  and  _305
REMARK  123  A    between atoms: _308  and  _310
REMARK  124  A    between atoms: _310  and  _311
REMARK  125  A    between atoms: _310  and  _313
REMARK  126  A    between atoms: _316  and  _318
REMARK  127  A    between atoms: _318  and  _319
REMARK  128  A    between atoms: _321  and  _323
REMARK  129  A    between atoms: _323  and  _324
REMARK  130  A    between atoms: _323  and  _326
REMARK  131  A    between atoms: _326  and  _327
REMARK  132  A    between atoms: _327  and  _328
REMARK  133  A    between atoms: _331  and  _333
REMARK  134  A    between atoms: _333  and  _334
REMARK  135  A    between atoms: _333  and  _336
REMARK  136  A    between atoms: _339  and  _341
REMARK  137  A    between atoms: _341  and  _342
REMARK  138  A    between atoms: _341  and  _344
REMARK  139  A    between atoms: _344  and  _345
REMARK  140  A    between atoms: _348  and  _350
REMARK  141  A    between atoms: _350  and  _351
REMARK  142  A    between atoms: _350  and  _353
REMARK  143  A    between atoms: _353  and  _354
REMARK  144  A    between atoms: _357  and  _359
REMARK  145  A    between atoms: _359  and  _360
REMARK  146  A    between atoms: _359  and  _362
REMARK  147  A    between atoms: _362  and  _363
REMARK  148  A    between atoms: _366  and  _368
REMARK  149  A    between atoms: _368  and  _369
REMARK  150  A    between atoms: _368  and  _371
REMARK  151  A    between atoms: _371  and  _372
REMARK  152  A    between atoms: _377  and  _378
REMARK  153  A    between atoms: _380  and  _382
REMARK  154  A    between atoms: _382  and  _383
REMARK  155  A    between atoms: _382  and  _385
REMARK  156  A    between atoms: _388  and  _390
REMARK  157  A    between atoms: _390  and  _391
REMARK  158  A    between atoms: _394  and  _396
REMARK  159  A    between atoms: _396  and  _397
REMARK  160  A    between atoms: _396  and  _399
REMARK  161  A    between atoms: _399  and  _400
REMARK  162  A    between atoms: _400  and  _401
REMARK  163  A    between atoms: _401  and  _402
REMARK  164  A    between atoms: _411  and  _413
REMARK  165  A    between atoms: _413  and  _414
REMARK  166  A    between atoms: _413  and  _416
REMARK  167  A    between atoms: _416  and  _417
REMARK  168  A    between atoms: _417  and  _418
REMARK  169  A    between atoms: _418  and  _419
REMARK  170  A    between atoms: _428  and  _430
REMARK  171  A    between atoms: _430  and  _431
REMARK  172  A    between atoms: _430  and  _433
REMARK  173  A    between atoms: _433  and  _434
REMARK  174  A    between atoms: _437  and  _439
REMARK  175  A    between atoms: _439  and  _440
REMARK  176  A    between atoms: _442  and  _444
REMARK  177  A    between atoms: _444  and  _445
REMARK  178  A    between atoms: _444  and  _447
REMARK  179  A    between atoms: _447  and  _448
REMARK  180  A    between atoms: _448  and  _449
REMARK  181  A    between atoms: _452  and  _454
REMARK  182  A    between atoms: _454  and  _455
REMARK  183  A    between atoms: _454  and  _457
REMARK  184  A    between atoms: _457  and  _458
REMARK  185  A    between atoms: _460  and  _462
REMARK  186  A    between atoms: _462  and  _463
REMARK  187  A    between atoms: _462  and  _465
REMARK  188  A    between atoms: _465  and  _466
REMARK  189  A    between atoms: _469  and  _471
REMARK  190  A    between atoms: _471  and  _472
REMARK  191  A    between atoms: _471  and  _474
REMARK  192  A    between atoms: _474  and  _475
REMARK  193  A    between atoms: _475  and  _476
REMARK  194  A    between atoms: _481  and  _483
REMARK  195  A    between atoms: _483  and  _484
REMARK  196  A    between atoms: _483  and  _486
REMARK  197  A    between atoms: _486  and  _487
REMARK  198  A    between atoms: _492  and  _494
REMARK  199  A    between atoms: _494  and  _495
REMARK  200  A    between atoms: _494  and  _497
REMARK  201  A    between atoms: _497  and  _498
REMARK  202  A    between atoms: _501  and  _503
REMARK  203  A    between atoms: _503  and  _504
REMARK  204  A    between atoms: _503  and  _506
REMARK  205  A    between atoms: _506  and  _507
REMARK  206  A    between atoms: _507  and  _508
REMARK  207  A    between atoms: _508  and  _509
REMARK  208  A    between atoms: _518  and  _520
REMARK  209  A    between atoms: _520  and  _521
REMARK  210  A    between atoms: _520  and  _523
REMARK  211  A    between atoms: _523  and  _524
REMARK  212  A    between atoms: _527  and  _529
REMARK  213  A    between atoms: _529  and  _530
REMARK  214  A    between atoms: _529  and  _532
REMARK  215  A    between atoms: _532  and  _533
REMARK  216  A    between atoms: _536  and  _538
REMARK  217  A    between atoms: _538  and  _539
REMARK  218  A    between atoms: _538  and  _541
REMARK  219  A    between atoms: _541  and  _542
REMARK  220  A    between atoms: _547  and  _548
REMARK  221  A    between atoms: _550  and  _552
REMARK  222  A    between atoms: _552  and  _553
REMARK  223  A    between atoms: _552  and  _555
REMARK  224  A    between atoms: _558  and  _560
REMARK  225  A    between atoms: _560  and  _561
REMARK  226  A    between atoms: _560  and  _563
REMARK  227  A    between atoms: _563  and  _564
REMARK  228  A    between atoms: _570  and  _572
REMARK  229  A    between atoms: _572  and  _573
REMARK  230  A    between atoms: _572  and  _575
REMARK  231  A    between atoms: _575  and  _576
REMARK  232  A    between atoms: _579  and  _581
REMARK  233  A    between atoms: _581  and  _582
REMARK  234  A    between atoms: _585  and  _587
REMARK  235  A    between atoms: _587  and  _588
REMARK  236  A    between atoms: _591  and  _593
REMARK  237  A    between atoms: _593  and  _594
REMARK  238  A    between atoms: _593  and  _596
REMARK  239  A    between atoms: _596  and  _597
REMARK  240  A    between atoms: _602  and  _603
REMARK  241  A    between atoms: _605  and  _607
REMARK  242  A    between atoms: _607  and  _608
REMARK  243  A    between atoms: _607  and  _610
REMARK  244  A    between atoms: _610  and  _611
REMARK  245  A    between atoms: _611  and  _612
REMARK  246  A    between atoms: _612  and  _613
REMARK                            x       y       z     vdW  Elec       q    Type
REMARK                         _______ _______ _______ _____ _____    ______ ____
ROOT
ATOM      1  C   HIS A   1      -5.858 -22.929   0.909  0.00  0.00    +0.239 C 
ATOM      2  O   HIS A   1      -6.099 -22.182   1.861  0.00  0.00    -0.274 OA
ATOM      3  N   SER A   2      -4.643 -23.047   0.378  0.00  0.00    -0.296 N 
ATOM      4  H   SER A   2      -4.495 -23.687  -0.429  0.00  0.00    +0.150 HD
ENDROOT
BRANCH   1   5
ATOM      5  CA  HIS A   1      -6.970 -23.800   0.319  0.00  0.00    +0.151 C 
BRANCH   5   6
ATOM      6  N   HIS A   1      -6.927 -23.948  -1.129  0.00  0.00    -0.238 NA
ATOM      7  H   HIS A   1      -6.552 -24.824  -1.545  0.00  0.00    +0.142 HD
ENDBRANCH   5   6
BRANCH   5   8
ATOM      8  CB  HIS A   1      -6.948 -25.161   1.006  0.00  0.00    +0.074 C 
BRANCH   8   9
ATOM      9  CG  HIS A   1      -6.839 -25.071   2.496  0.00  0.00    +0.082 A 
ATOM     10  CD2 HIS A   1      -7.776 -24.845   3.446  0.00  0.00    +0.115 A 
ATOM     11  NE2 HIS A   1      -7.131 -24.854   4.661  0.00  0.00    -0.221 NA
ATOM     12  CE1 HIS A   1      -5.844 -25.071   4.461  0.00  0.00    +0.199 A 
ATOM     13  ND1 HIS A   1      -5.639 -25.200   3.162  0.00  0.00    -0.227 NA
ENDBRANCH   8   9
ENDBRANCH   5   8
ENDBRANCH   1   5
BRANCH   3  14
ATOM     14  CA  SER A   2      -3.513 -22.287   0.916  0.00  0.00    +0.166 C 
BRANCH  14  15
ATOM     15  C   SER A   2      -2.519 -21.845  -0.144  0.00  0.00    +0.229 C 
ATOM     16  O   SER A   2      -1.754 -22.649  -0.669  0.00  0.00    -0.286 OA
ENDBRANCH  14  15
BRANCH  14  17
ATOM     17  CB  SER A   2      -2.769 -23.079   1.990  0.00  0.00    +0.165 C 
BRANCH  17  18
ATOM     18  OG  SER A   2      -1.618 -22.359   2.417  0.00  0.00    -0.380 OA
ATOM     19  H   SER A   2      -1.896 -21.485   2.790  0.00  0.00    +0.211 HD
ENDBRANCH  17  18
ENDBRANCH  14  17
ENDBRANCH   3  14
TORSDOF 8
REMARK  Name = ../refined-set-2016/3tfp/3tfp_pocket.pdb
REMARK  246 active torsions:
REMARK  status: ('A' for Active; 'I' for Inactive)
REMARK    1  A    between atoms: _1  and  _3
REMARK    2  A    between atoms: _3  and  _4
REMARK    3  A    between atoms: _3  and  _6
REMARK    4  A    between atoms: _6  and  _7
REMARK    5  A    between atoms: _10  and  _12
REMARK    6  A    between atoms: _12  and  _13
REMARK    7  A    between atoms: _12  and  _15
REMARK    8  A    between atoms: _15  and  _16
REMARK    9  A    between atoms: _16  and  _17
REMARK   10  A    between atoms: _19  and  _21
REMARK   11  A    between atoms: _21  and  _22
REMARK   12  A    between atoms: _21  and  _24
REMARK   13  A    between atoms: _24  and  _25
REMARK   14  A    between atoms: _30  and  _32
REMARK   15  A    between atoms: _32  and  _33
REMARK   16  A    between atoms: _32  and  _35
REMARK   17  A    between atoms: _35  and  _36
REMARK   18  A    between atoms: _38  and  _40
REMARK   19  A    between atoms: _40  and  _41
REMARK   20  A    between atoms: _40  and  _43
REMARK   21  A    between atoms: _43  and  _44
REMARK   22  A    between atoms: _50  and  _52
REMARK   23  A    between atoms: _52  and  _53
REMARK   24  A    between atoms: _52  and  _55
REMARK   25  A    between atoms: _55  and  _56
REMARK   26  A    between atoms: _58  and  _60
REMARK   27  A    between atoms: _60  and  _61
REMARK   28  A    between atoms: _60  and  _63
REMARK   29  A    between atoms: _63  and  _64
REMARK   30  A    between atoms: _70  and  _72
REMARK   31  A    between atoms: _72  and  _73
REMARK   32  A    between atoms: _76  and  _78
REMARK   33  A    between atoms: _78  and  _79
REMARK   34  A    between atoms: _78  and  _81
REMARK   35  A    between atoms: _84  and  _86
REMARK   36  A    between atoms: _86  and  _87
REMARK   37  A    between atoms: _86  and  _89
REMARK   38  A    between atoms: _89  and  _90
REMARK   39  A    between atoms: _100  and  _102
REMARK   40  A    between atoms: _102  and  _103
REMARK   41  A    between atoms: _106  and  _108
REMARK   42  A    between atoms: _108  and  _109
REMARK   43  A    between atoms: _108  and  _111
REMARK   44  A    between atoms: _111  and  _112
REMARK   45  A    between atoms: _115  and  _117
REMARK   46  A    between atoms: _117  and  _118
REMARK   47  A    between atoms: _117  and  _120
REMARK   48  A    between atoms: _120  and  _121
REMARK   49  A    between atoms: _126  and  _127
REMARK   50  A    between atoms: _129  and  _131
REMARK   51  A    between atoms: _131  and  _132
REMARK   52  A    between atoms: _135  and  _137
REMARK   53  A    between atoms: _137  and  _138
REMARK   54  A    between atoms: _137  and  _140
REMARK   55  A    between atoms: _143  and  _145
REMARK   56  A    between atoms: _145  and  _146
REMARK   57  A    between atoms: _145  and  _148
REMARK   58  A    between atoms: _150  and  _152
REMARK   59  A    between atoms: _152  and  _153
REMARK   60  A    between atoms: _152  and  _155
REMARK   61  A    between atoms: _155  and  _156
REMARK   62  A    between atoms: _156  and  _157
REMARK   63  A    between atoms: _157  and  _158
REMARK   64  A    between atoms: _167  and  _169
REMARK   65  A    between atoms: _169  and  _170
REMARK   66  A    between atoms: _169  and  _172
REMARK   67  A    between atoms: _172  and  _173
REMARK   68  A    between atoms: _173  and  _174
REMARK   69  A    between atoms: _174  and  _175
REMARK   70  A    between atoms: _175  and  _176
REMARK   71  A    between atoms: _180  and  _182
REMARK   72  A    between atoms: _182  and  _183
REMARK   73  A    between atoms: _182  and  _185
REMARK   74  A    between atoms: _185  and  _186
REMARK   75  A    between atoms: _189  and  _191
REMARK   76  A    between atoms: _191  and  _192
REMARK   77  A    between atoms: _191  and  _194
REMARK   78  A    between atoms: _194  and  _195
REMARK   79  A    between atoms: _198  and  _200
REMARK   80  A    between atoms: _200  and  _201
REMARK   81  A    between atoms: _200  and  _203
REMARK   82  A    between atoms: _203  and  _204
REMARK   83  A    between atoms: _207  and  _209
REMARK   84  A    between atoms: _209  and  _210
REMARK   85  A    between atoms: _209  and  _212
REMARK   86  A    between atoms: _212  and  _213
REMARK   87  A    between atoms: _219  and  _221
REMARK   88  A    between atoms: _221  and  _222
REMARK   89  A    between atoms: _221  and  _224
REMARK   90  A    between atoms: _224  and  _225
REMARK   91  A    between atoms: _228  and  _230
REMARK   92  A    between atoms: _230  and  _231
REMARK   93  A    between atoms: _230  and  _233
REMARK   94  A    between atoms: _233  and  _234
REMARK   95  A    between atoms: _237  and  _239
REMARK   96  A    between atoms: _239  and  _240
REMARK   97  A    between atoms: _239  and  _242
REMARK   98  A    between atoms: _242  and  _243
REMARK   99  A    between atoms: _246  and  _248
REMARK  100  A    between atoms: _248  and  _249
REMARK  101  A    between atoms: _248  and  _251
REMARK  102  A    between atoms: _254  and  _256
REMARK  103  A    between atoms: _256  and  _257
REMARK  104  A    between atoms: _256  and  _259
REMARK  105  A    between atoms: _259  and  _260
REMARK  106  A    between atoms: _265  and  _266
REMARK  107  A    between atoms: _268  and  _270
REMARK  108  A    between atoms: _270  and  _271
REMARK  109  A    between atoms: _270  and  _273
REMARK  110  A    between atoms: _275  and  _277
REMARK  111  A    between atoms: _277  and  _278
REMARK  112  A    between atoms: _280  and  _282
REMARK  113  A    between atoms: _282  and  _283
REMARK  114  A    between atoms: _282  and  _285
REMARK  115  A    between atoms: _288  and  _290
REMARK  116  A    between atoms: _290  and  _291
REMARK  117  A    between atoms: _294  and  _296
REMARK  118  A    between atoms: _296  and  _297
REMARK  119  A    between atoms: _299  and  _301
REMARK  120  A    between atoms: _301  and  _302
REMARK  121  A    between atoms: _301  and  _304
REMARK  122  A    between atoms: _304  and  _305
REMARK  123  A    between atoms: _308  and  _310
REMARK  124  A    between atoms: _310  and  _311
REMARK  125  A    between atoms: _310  and  _313
REMARK  126  A    between atoms: _316  and  _318
REMARK  127  A    between atoms: _318  and  _319
REMARK  128  A    between atoms: _321  and  _323
REMARK  129  A    between atoms: _323  and  _324
REMARK  130  A    between atoms: _323  and  _326
REMARK  131  A    between atoms: _326  and  _327
REMARK  132  A    between atoms: _327  and  _328
REMARK  133  A    between atoms: _331  and  _333
REMARK  134  A    between atoms: _333  and  _334
REMARK  135  A    between atoms: _333  and  _336
REMARK  136  A    between atoms: _339  and  _341
REMARK  137  A    between atoms: _341  and  _342
REMARK  138  A    between atoms: _341  and  _344
REMARK  139  A    between atoms: _344  and  _345
REMARK  140  A    between atoms: _348  and  _350
REMARK  141  A    between atoms: _350  and  _351
REMARK  142  A    between atoms: _350  and  _353
REMARK  143  A    between atoms: _353  and  _354
REMARK  144  A    between atoms: _357  and  _359
REMARK  145  A    between atoms: _359  and  _360
REMARK  146  A    between atoms: _359  and  _362
REMARK  147  A    between atoms: _362  and  _363
REMARK  148  A    between atoms: _366  and  _368
REMARK  149  A    between atoms: _368  and  _369
REMARK  150  A    between atoms: _368  and  _371
REMARK  151  A    between atoms: _371  and  _372
REMARK  152  A    between atoms: _377  and  _378
REMARK  153  A    between atoms: _380  and  _382
REMARK  154  A    between atoms: _382  and  _383
REMARK  155  A    between atoms: _382  and  _385
REMARK  156  A    between atoms: _388  and  _390
REMARK  157  A    between atoms: _390  and  _391
REMARK  158  A    between atoms: _394  and  _396
REMARK  159  A    between atoms: _396  and  _397
REMARK  160  A    between atoms: _396  and  _399
REMARK  161  A    between atoms: _399  and  _400
REMARK  162  A    between atoms: _400  and  _401
REMARK  163  A    between atoms: _401  and  _402
REMARK  164  A    between atoms: _411  and  _413
REMARK  165  A    between atoms: _413  and  _414
REMARK  166  A    between atoms: _413  and  _416
REMARK  167  A    between atoms: _416  and  _417
REMARK  168  A    between atoms: _417  and  _418
REMARK  169  A    between atoms: _418  and  _419
REMARK  170  A    between atoms: _428  and  _430
REMARK  171  A    between atoms: _430  and  _431
REMARK  172  A    between atoms: _430  and  _433
REMARK  173  A    between atoms: _433  and  _434
REMARK  174  A    between atoms: _437  and  _439
REMARK  175  A    between atoms: _439  and  _440
REMARK  176  A    between atoms: _442  and  _444
REMARK  177  A    between atoms: _444  and  _445
REMARK  178  A    between atoms: _444  and  _447
REMARK  179  A    between atoms: _447  and  _448
REMARK  180  A    between atoms: _448  and  _449
REMARK  181  A    between atoms: _452  and  _454
REMARK  182  A    between atoms: _454  and  _455
REMARK  183  A    between atoms: _454  and  _457
REMARK  184  A    between atoms: _457  and  _458
REMARK  185  A    between atoms: _460  and  _462
REMARK  186  A    between atoms: _462  and  _463
REMARK  187  A    between atoms: _462  and  _465
REMARK  188  A    between atoms: _465  and  _466
REMARK  189  A    between atoms: _469  and  _471
REMARK  190  A    between atoms: _471  and  _472
REMARK  191  A    between atoms: _471  and  _474
REMARK  192  A    between atoms: _474  and  _475
REMARK  193  A    between atoms: _475  and  _476
REMARK  194  A    between atoms: _481  and  _483
REMARK  195  A    between atoms: _483  and  _484
REMARK  196  A    between atoms: _483  and  _486
REMARK  197  A    between atoms: _486  and  _487
REMARK  198  A    between atoms: _492  and  _494
REMARK  199  A    between atoms: _494  and  _495
REMARK  200  A    between atoms: _494  and  _497
REMARK  201  A    between atoms: _497  and  _498
REMARK  202  A    between atoms: _501  and  _503
REMARK  203  A    between atoms: _503  and  _504
REMARK  204  A    between atoms: _503  and  _506
REMARK  205  A    between atoms: _506  and  _507
REMARK  206  A    between atoms: _507  and  _508
REMARK  207  A    between atoms: _508  and  _509
REMARK  208  A    between atoms: _518  and  _520
REMARK  209  A    between atoms: _520  and  _521
REMARK  210  A    between atoms: _520  and  _523
REMARK  211  A    between atoms: _523  and  _524
REMARK  212  A    between atoms: _527  and  _529
REMARK  213  A    between atoms: _529  and  _530
REMARK  214  A    between atoms: _529  and  _532
REMARK  215  A    between atoms: _532  and  _533
REMARK  216  A    between atoms: _536  and  _538
REMARK  217  A    between atoms: _538  and  _539
REMARK  218  A    between atoms: _538  and  _541
REMARK  219  A    between atoms: _541  and  _542
REMARK  220  A    between atoms: _547  and  _548
REMARK  221  A    between atoms: _550  and  _552
REMARK  222  A    between atoms: _552  and  _553
REMARK  223  A    between atoms: _552  and  _555
REMARK  224  A    between atoms: _558  and  _560
REMARK  225  A    between atoms: _560  and  _561
REMARK  226  A    between atoms: _560  and  _563
REMARK  227  A    between atoms: _563  and  _564
REMARK  228  A    between atoms: _570  and  _572
REMARK  229  A    between atoms: _572  and  _573
REMARK  230  A    between atoms: _572  and  _575
REMARK  231  A    between atoms: _575  and  _576
REMARK  232  A    between atoms: _579  and  _581
REMARK  233  A    between atoms: _581  and  _582
REMARK  234  A    between atoms: _585  and  _587
REMARK  235  A    between atoms: _587  and  _588
REMARK  236  A    between atoms: _591  and  _593
REMARK  237  A    between atoms: _593  and  _594
REMARK  238  A    between atoms: _593  and  _596
REMARK  239  A    between atoms: _596  and  _597
REMARK  240  A    between atoms: _602  and  _603
REMARK  241  A    between atoms: _605  and  _607
REMARK  242  A    between atoms: _607  and  _608
REMARK  243  A    between atoms: _607  and  _610
REMARK  244  A    between atoms: _610  and  _611
REMARK  245  A    between atoms: _611  and  _612
REMARK  246  A    between atoms: _612  and  _613
REMARK                            x       y       z     vdW  Elec       q    Type
REMARK                         _______ _______ _______ _____ _____    ______ ____
ROOT
ATOM      1  CA  PHE A   1       1.803 -23.790   1.282  0.00  0.00    +0.149 C 
ENDROOT
BRANCH   1   2
ATOM      2  C   PHE A   1       1.999 -24.260  -0.145  0.00  0.00    +0.239 C 
ATOM      3  O   PHE A   1       2.986 -24.923  -0.457  0.00  0.00    -0.274 OA
ATOM      4  N   SER A   2       1.061 -23.925  -1.022  0.00  0.00    -0.296 N 
ATOM      5  H   SER A   2       0.228 -23.383  -0.717  0.00  0.00    +0.150 HD
BRANCH   4   6
ATOM      6  CA  SER A   2       1.209 -24.323  -2.412  0.00  0.00    +0.166 C 
BRANCH   6   7
ATOM      7  CB  SER A   2       2.432 -23.630  -3.004  0.00  0.00    +0.229 C 
ATOM      8  OG  SER A   2       3.228 -24.254  -3.700  0.00  0.00    -0.286 OA
ENDBRANCH   6   7
BRANCH   6   9
ATOM      9  C   SER A   2      -0.060 -24.025  -3.224  0.00  0.00    +0.165 C 
BRANCH   9  10
ATOM     10  O   SER A   2      -0.428 -22.657  -3.129  0.00  0.00    -0.380 OA
ATOM     11  H   SER A   2      -0.600 -22.428  -2.181  0.00  0.00    +0.211 HD
ENDBRANCH   9  10
ENDBRANCH   6   9
ENDBRANCH   4   6
ENDBRANCH   1   2
BRANCH   1  12
ATOM     12  N   PHE A   1       1.273 -22.430   1.356  0.00  0.00    -0.238 NA
ATOM     13  H   PHE A   1       0.332 -22.270   1.768  0.00  0.00    +0.142 HD
ENDBRANCH   1  12
BRANCH   1  14
ATOM     14  CB  PHE A   1       0.907 -24.759   2.052  0.00  0.00    +0.053 C 
BRANCH  14  15
ATOM     15  CG  PHE A   1       0.978 -24.576   3.531  0.00  0.00    -0.020 A 
ATOM     16  CD2 PHE A   1      -0.165 -24.616   4.310  0.00  0.00    -0.004 A 
ATOM     17  CE2 PHE A   1      -0.092 -24.429   5.679  0.00  0.00    -0.000 A 
ATOM     18  CZ  PHE A   1       1.134 -24.197   6.280  0.00  0.00    -0.000 A 
ATOM     19  CE1 PHE A   1       2.279 -24.145   5.510  0.00  0.00    -0.000 A 
ATOM     20  CD1 PHE A   1       2.195 -24.330   4.142  0.00  0.00    -0.004 A 
ENDBRANCH  14  15
ENDBRANCH   1  14
TORSDOF 8
REMARK  Name = ../refined-set-2016/3tfp/3tfp_pocket.pdb
REMARK  246 active torsions:
REMARK  status: ('A' for Active; 'I' for Inactive)
REMARK    1  A    between atoms: _1  and  _3
REMARK    2  A    between atoms: _3  and  _4
REMARK    3  A    between atoms: _3  and  _6
REMARK    4  A    between atoms: _6  and  _7
REMARK    5  A    between atoms: _10  and  _12
REMARK    6  A    between atoms: _12  and  _13
REMARK    7  A    between atoms: _12  and  _15
REMARK    8  A    between atoms: _15  and  _16
REMARK    9  A    between atoms: _16  and  _17
REMARK   10  A    between atoms: _19  and  _21
REMARK   11  A    between atoms: _21  and  _22
REMARK   12  A    between atoms: _21  and  _24
REMARK   13  A    between atoms: _24  and  _25
REMARK   14  A    between atoms: _30  and  _32
REMARK   15  A    between atoms: _32  and  _33
REMARK   16  A    between atoms: _32  and  _35
REMARK   17  A    between atoms: _35  and  _36
REMARK   18  A    between atoms: _38  and  _40
REMARK   19  A    between atoms: _40  and  _41
REMARK   20  A    between atoms: _40  and  _43
REMARK   21  A    between atoms: _43  and  _44
REMARK   22  A    between atoms: _50  and  _52
REMARK   23  A    between atoms: _52  and  _53
REMARK   24  A    between atoms: _52  and  _55
REMARK   25  A    between atoms: _55  and  _56
REMARK   26  A    between atoms: _58  and  _60
REMARK   27  A    between atoms: _60  and  _61
REMARK   28  A    between atoms: _60  and  _63
REMARK   29  A    between atoms: _63  and  _64
REMARK   30  A    between atoms: _70  and  _72
REMARK   31  A    between atoms: _72  and  _73
REMARK   32  A    between atoms: _76  and  _78
REMARK   33  A    between atoms: _78  and  _79
REMARK   34  A    between atoms: _78  and  _81
REMARK   35  A    between atoms: _84  and  _86
REMARK   36  A    between atoms: _86  and  _87
REMARK   37  A    between atoms: _86  and  _89
REMARK   38  A    between atoms: _89  and  _90
REMARK   39  A    between atoms: _100  and  _102
REMARK   40  A    between atoms: _102  and  _103
REMARK   41  A    between atoms: _106  and  _108
REMARK   42  A    between atoms: _108  and  _109
REMARK   43  A    between atoms: _108  and  _111
REMARK   44  A    between atoms: _111  and  _112
REMARK   45  A    between atoms: _115  and  _117
REMARK   46  A    between atoms: _117  and  _118
REMARK   47  A    between atoms: _117  and  _120
REMARK   48  A    between atoms: _120  and  _121
REMARK   49  A    between atoms: _126  and  _127
REMARK   50  A    between atoms: _129  and  _131
REMARK   51  A    between atoms: _131  and  _132
REMARK   52  A    between atoms: _135  and  _137
REMARK   53  A    between atoms: _137  and  _138
REMARK   54  A    between atoms: _137  and  _140
REMARK   55  A    between atoms: _143  and  _145
REMARK   56  A    between atoms: _145  and  _146
REMARK   57  A    between atoms: _145  and  _148
REMARK   58  A    between atoms: _150  and  _152
REMARK   59  A    between atoms: _152  and  _153
REMARK   60  A    between atoms: _152  and  _155
REMARK   61  A    between atoms: _155  and  _156
REMARK   62  A    between atoms: _156  and  _157
REMARK   63  A    between atoms: _157  and  _158
REMARK   64  A    between atoms: _167  and  _169
REMARK   65  A    between atoms: _169  and  _170
REMARK   66  A    between atoms: _169  and  _172
REMARK   67  A    between atoms: _172  and  _173
REMARK   68  A    between atoms: _173  and  _174
REMARK   69  A    between atoms: _174  and  _175
REMARK   70  A    between atoms: _175  and  _176
REMARK   71  A    between atoms: _180  and  _182
REMARK   72  A    between atoms: _182  and  _183
REMARK   73  A    between atoms: _182  and  _185
REMARK   74  A    between atoms: _185  and  _186
REMARK   75  A    between atoms: _189  and  _191
REMARK   76  A    between atoms: _191  and  _192
REMARK   77  A    between atoms: _191  and  _194
REMARK   78  A    between atoms: _194  and  _195
REMARK   79  A    between atoms: _198  and  _200
REMARK   80  A    between atoms: _200  and  _201
REMARK   81  A    between atoms: _200  and  _203
REMARK   82  A    between atoms: _203  and  _204
REMARK   83  A    between atoms: _207  and  _209
REMARK   84  A    between atoms: _209  and  _210
REMARK   85  A    between atoms: _209  and  _212
REMARK   86  A    between atoms: _212  and  _213
REMARK   87  A    between atoms: _219  and  _221
REMARK   88  A    between atoms: _221  and  _222
REMARK   89  A    between atoms: _221  and  _224
REMARK   90  A    between atoms: _224  and  _225
REMARK   91  A    between atoms: _228  and  _230
REMARK   92  A    between atoms: _230  and  _231
REMARK   93  A    between atoms: _230  and  _233
REMARK   94  A    between atoms: _233  and  _234
REMARK   95  A    between atoms: _237  and  _239
REMARK   96  A    between atoms: _239  and  _240
REMARK   97  A    between atoms: _239  and  _242
REMARK   98  A    between atoms: _242  and  _243
REMARK   99  A    between atoms: _246  and  _248
REMARK  100  A    between atoms: _248  and  _249
REMARK  101  A    between atoms: _248  and  _251
REMARK  102  A    between atoms: _254  and  _256
REMARK  103  A    between atoms: _256  and  _257
REMARK  104  A    between atoms: _256  and  _259
REMARK  105  A    between atoms: _259  and  _260
REMARK  106  A    between atoms: _265  and  _266
REMARK  107  A    between atoms: _268  and  _270
REMARK  108  A    between atoms: _270  and  _271
REMARK  109  A    between atoms: _270  and  _273
REMARK  110  A    between atoms: _275  and  _277
REMARK  111  A    between atoms: _277  and  _278
REMARK  112  A    between atoms: _280  and  _282
REMARK  113  A    between atoms: _282  and  _283
REMARK  114  A    between atoms: _282  and  _285
REMARK  115  A    between atoms: _288  and  _290
REMARK  116  A    between atoms: _290  and  _291
REMARK  117  A    between atoms: _294  and  _296
REMARK  118  A    between atoms: _296  and  _297
REMARK  119  A    between atoms: _299  and  _301
REMARK  120  A    between atoms: _301  and  _302
REMARK  121  A    between atoms: _301  and  _304
REMARK  122  A    between atoms: _304  and  _305
REMARK  123  A    between atoms: _308  and  _310
REMARK  124  A    between atoms: _310  and  _311
REMARK  125  A    between atoms: _310  and  _313
REMARK  126  A    between atoms: _316  and  _318
REMARK  127  A    between atoms: _318  and  _319
REMARK  128  A    between atoms: _321  and  _323
REMARK  129  A    between atoms: _323  and  _324
REMARK  130  A    between atoms: _323  and  _326
REMARK  131  A    between atoms: _326  and  _327
REMARK  132  A    between atoms: _327  and  _328
REMARK  133  A    between atoms: _331  and  _333
REMARK  134  A    between atoms: _333  and  _334
REMARK  135  A    between atoms: _333  and  _336
REMARK  136  A    between atoms: _339  and  _341
REMARK  137  A    between atoms: _341  and  _342
REMARK  138  A    between atoms: _341  and  _344
REMARK  139  A    between atoms: _344  and  _345
REMARK  140  A    between atoms: _348  and  _350
REMARK  141  A    between atoms: _350  and  _351
REMARK  142  A    between atoms: _350  and  _353
REMARK  143  A    between atoms: _353  and  _354
REMARK  144  A    between atoms: _357  and  _359
REMARK  145  A    between atoms: _359  and  _360
REMARK  146  A    between atoms: _359  and  _362
REMARK  147  A    between atoms: _362  and  _363
REMARK  148  A    between atoms: _366  and  _368
REMARK  149  A    between atoms: _368  and  _369
REMARK  150  A    between atoms: _368  and  _371
REMARK  151  A    between atoms: _371  and  _372
REMARK  152  A    between atoms: _377  and  _378
REMARK  153  A    between atoms: _380  and  _382
REMARK  154  A    between atoms: _382  and  _383
REMARK  155  A    between atoms: _382  and  _385
REMARK  156  A    between atoms: _388  and  _390
REMARK  157  A    between atoms: _390  and  _391
REMARK  158  A    between atoms: _394  and  _396
REMARK  159  A    between atoms: _396  and  _397
REMARK  160  A    between atoms: _396  and  _399
REMARK  161  A    between atoms: _399  and  _400
REMARK  162  A    between atoms: _400  and  _401
REMARK  163  A    between atoms: _401  and  _402
REMARK  164  A    between atoms: _411  and  _413
REMARK  165  A    between atoms: _413  and  _414
REMARK  166  A    between atoms: _413  and  _416
REMARK  167  A    between atoms: _416  and  _417
REMARK  168  A    between atoms: _417  and  _418
REMARK  169  A    between atoms: _418  and  _419
REMARK  170  A    between atoms: _428  and  _430
REMARK  171  A    between atoms: _430  and  _431
REMARK  172  A    between atoms: _430  and  _433
REMARK  173  A    between atoms: _433  and  _434
REMARK  174  A    between atoms: _437  and  _439
REMARK  175  A    between atoms: _439  and  _440
REMARK  176  A    between atoms: _442  and  _444
REMARK  177  A    between atoms: _444  and  _445
REMARK  178  A    between atoms: _444  and  _447
REMARK  179  A    between atoms: _447  and  _448
REMARK  180  A    between atoms: _448  and  _449
REMARK  181  A    between atoms: _452  and  _454
REMARK  182  A    between atoms: _454  and  _455
REMARK  183  A    between atoms: _454  and  _457
REMARK  184  A    between atoms: _457  and  _458
REMARK  185  A    between atoms: _460  and  _462
REMARK  186  A    between atoms: _462  and  _463
REMARK  187  A    between atoms: _462  and  _465
REMARK  188  A    between atoms: _465  and  _466
REMARK  189  A    between atoms: _469  and  _471
REMARK  190  A    between atoms: _471  and  _472
REMARK  191  A    between atoms: _471  and  _474
REMARK  192  A    between atoms: _474  and  _475
REMARK  193  A    between atoms: _475  and  _476
REMARK  194  A    between atoms: _481  and  _483
REMARK  195  A    between atoms: _483  and  _484
REMARK  196  A    between atoms: _483  and  _486
REMARK  197  A    between atoms: _486  and  _487
REMARK  198  A    between atoms: _492  and  _494
REMARK  199  A    between atoms: _494  and  _495
REMARK  200  A    between atoms: _494  and  _497
REMARK  201  A    between atoms: _497  and  _498
REMARK  202  A    between atoms: _501  and  _503
REMARK  203  A    between atoms: _503  and  _504
REMARK  204  A    between atoms: _503  and  _506
REMARK  205  A    between atoms: _506  and  _507
REMARK  206  A    between atoms: _507  and  _508
REMARK  207  A    between atoms: _508  and  _509
REMARK  208  A    between atoms: _518  and  _520
REMARK  209  A    between atoms: _520  and  _521
REMARK  210  A    between atoms: _520  and  _523
REMARK  211  A    between atoms: _523  and  _524
REMARK  212  A    between atoms: _527  and  _529
REMARK  213  A    between atoms: _529  and  _530
REMARK  214  A    between atoms: _529  and  _532
REMARK  215  A    between atoms: _532  and  _533
REMARK  216  A    between atoms: _536  and  _538
REMARK  217  A    between atoms: _538  and  _539
REMARK  218  A    between atoms: _538  and  _541
REMARK  219  A    between atoms: _541  and  _542
REMARK  220  A    between atoms: _547  and  _548
REMARK  221  A    between atoms: _550  and  _552
REMARK  222  A    between atoms: _552  and  _553
REMARK  223  A    between atoms: _552  and  _555
REMARK  224  A    between atoms: _558  and  _560
REMARK  225  A    between atoms: _560  and  _561
REMARK  226  A    between atoms: _560  and  _563
REMARK  227  A    between atoms: _563  and  _564
REMARK  228  A    between atoms: _570  and  _572
REMARK  229  A    between atoms: _572  and  _573
REMARK  230  A    between atoms: _572  and  _575
REMARK  231  A    between atoms: _575  and  _576
REMARK  232  A    between atoms: _579  and  _581
REMARK  233  A    between atoms: _581  and  _582
REMARK  234  A    between atoms: _585  and  _587
REMARK  235  A    between atoms: _587  and  _588
REMARK  236  A    between atoms: _591  and  _593
REMARK  237  A    between atoms: _593  and  _594
REMARK  238  A    between atoms: _593  and  _596
REMARK  239  A    between atoms: _596  and  _597
REMARK  240  A    between atoms: _602  and  _603
REMARK  241  A    between atoms: _605  and  _607
REMARK  242  A    between atoms: _607  and  _608
REMARK  243  A    between atoms: _607  and  _610
REMARK  244  A    between atoms: _610  and  _611
REMARK  245  A    between atoms: _611  and  _612
REMARK  246  A    between atoms: _612  and  _613
REMARK                            x       y       z     vdW  Elec       q    Type
REMARK                         _______ _______ _______ _____ _____    ______ ____
ROOT
ATOM      1  CB  PHE A   1       4.523 -27.779  -1.119  0.00  0.00    +0.051 C 
ENDROOT
BRANCH   1   2
ATOM      2  CG  PHE A   1       4.694 -27.964   0.358  0.00  0.00    -0.020 A 
ATOM      3  CD2 PHE A   1       3.637 -27.751   1.225  0.00  0.00    -0.004 A 
ATOM      4  CE2 PHE A   1       3.796 -27.927   2.589  0.00  0.00    -0.000 A 
ATOM      5  CZ  PHE A   1       5.018 -28.310   3.093  0.00  0.00    -0.000 A 
ATOM      6  CE1 PHE A   1       6.081 -28.526   2.238  0.00  0.00    -0.000 A 
ATOM      7  CD1 PHE A   1       5.916 -28.350   0.879  0.00  0.00    -0.004 A 
ENDBRANCH   1   2
BRANCH   1   8
ATOM      8  CA  PHE A   1       5.665 -27.001  -1.774  0.00  0.00    +0.137 C 
BRANCH   8   9
ATOM      9  N   PHE A   1       5.583 -25.580  -1.428  0.00  0.00    -0.239 NA
ATOM     10  H   PHE A   1       4.731 -25.223  -0.950  0.00  0.00    +0.142 HD
ENDBRANCH   8   9
BRANCH   8  11
ATOM     11  C   PHE A   1       5.713 -27.288  -3.270  0.00  0.00    +0.224 C 
ATOM     12  O   PHE A   1       6.275 -28.298  -3.687  0.00  0.00    -0.287 OA
ENDBRANCH   8  11
ENDBRANCH   1   8
TORSDOF 4
REMARK  Name = ../refined-set-2016/3tfp/3tfp_pocket.pdb
REMARK  246 active torsions:
REMARK  status: ('A' for Active; 'I' for Inactive)
REMARK    1  A    between atoms: _1  and  _3
REMARK    2  A    between atoms: _3  and  _4
REMARK    3  A    between atoms: _3  and  _6
REMARK    4  A    between atoms: _6  and  _7
REMARK    5  A    between atoms: _10  and  _12
REMARK    6  A    between atoms: _12  and  _13
REMARK    7  A    between atoms: _12  and  _15
REMARK    8  A    between atoms: _15  and  _16
REMARK    9  A    between atoms: _16  and  _17
REMARK   10  A    between atoms: _19  and  _21
REMARK   11  A    between atoms: _21  and  _22
REMARK   12  A    between atoms: _21  and  _24
REMARK   13  A    between atoms: _24  and  _25
REMARK   14  A    between atoms: _30  and  _32
REMARK   15  A    between atoms: _32  and  _33
REMARK   16  A    between atoms: _32  and  _35
REMARK   17  A    between atoms: _35  and  _36
REMARK   18  A    between atoms: _38  and  _40
REMARK   19  A    between atoms: _40  and  _41
REMARK   20  A    between atoms: _40  and  _43
REMARK   21  A    between atoms: _43  and  _44
REMARK   22  A    between atoms: _50  and  _52
REMARK   23  A    between atoms: _52  and  _53
REMARK   24  A    between atoms: _52  and  _55
REMARK   25  A    between atoms: _55  and  _56
REMARK   26  A    between atoms: _58  and  _60
REMARK   27  A    between atoms: _60  and  _61
REMARK   28  A    between atoms: _60  and  _63
REMARK   29  A    between atoms: _63  and  _64
REMARK   30  A    between atoms: _70  and  _72
REMARK   31  A    between atoms: _72  and  _73
REMARK   32  A    between atoms: _76  and  _78
REMARK   33  A    between atoms: _78  and  _79
REMARK   34  A    between atoms: _78  and  _81
REMARK   35  A    between atoms: _84  and  _86
REMARK   36  A    between atoms: _86  and  _87
REMARK   37  A    between atoms: _86  and  _89
REMARK   38  A    between atoms: _89  and  _90
REMARK   39  A    between atoms: _100  and  _102
REMARK   40  A    between atoms: _102  and  _103
REMARK   41  A    between atoms: _106  and  _108
REMARK   42  A    between atoms: _108  and  _109
REMARK   43  A    between atoms: _108  and  _111
REMARK   44  A    between atoms: _111  and  _112
REMARK   45  A    between atoms: _115  and  _117
REMARK   46  A    between atoms: _117  and  _118
REMARK   47  A    between atoms: _117  and  _120
REMARK   48  A    between atoms: _120  and  _121
REMARK   49  A    between atoms: _126  and  _127
REMARK   50  A    between atoms: _129  and  _131
REMARK   51  A    between atoms: _131  and  _132
REMARK   52  A    between atoms: _135  and  _137
REMARK   53  A    between atoms: _137  and  _138
REMARK   54  A    between atoms: _137  and  _140
REMARK   55  A    between atoms: _143  and  _145
REMARK   56  A    between atoms: _145  and  _146
REMARK   57  A    between atoms: _145  and  _148
REMARK   58  A    between atoms: _150  and  _152
REMARK   59  A    between atoms: _152  and  _153
REMARK   60  A    between atoms: _152  and  _155
REMARK   61  A    between atoms: _155  and  _156
REMARK   62  A    between atoms: _156  and  _157
REMARK   63  A    between atoms: _157  and  _158
REMARK   64  A    between atoms: _167  and  _169
REMARK   65  A    between atoms: _169  and  _170
REMARK   66  A    between atoms: _169  and  _172
REMARK   67  A    between atoms: _172  and  _173
REMARK   68  A    between atoms: _173  and  _174
REMARK   69  A    between atoms: _174  and  _175
REMARK   70  A    between atoms: _175  and  _176
REMARK   71  A    between atoms: _180  and  _182
REMARK   72  A    between atoms: _182  and  _183
REMARK   73  A    between atoms: _182  and  _185
REMARK   74  A    between atoms: _185  and  _186
REMARK   75  A    between atoms: _189  and  _191
REMARK   76  A    between atoms: _191  and  _192
REMARK   77  A    between atoms: _191  and  _194
REMARK   78  A    between atoms: _194  and  _195
REMARK   79  A    between atoms: _198  and  _200
REMARK   80  A    between atoms: _200  and  _201
REMARK   81  A    between atoms: _200  and  _203
REMARK   82  A    between atoms: _203  and  _204
REMARK   83  A    between atoms: _207  and  _209
REMARK   84  A    between atoms: _209  and  _210
REMARK   85  A    between atoms: _209  and  _212
REMARK   86  A    between atoms: _212  and  _213
REMARK   87  A    between atoms: _219  and  _221
REMARK   88  A    between atoms: _221  and  _222
REMARK   89  A    between atoms: _221  and  _224
REMARK   90  A    between atoms: _224  and  _225
REMARK   91  A    between atoms: _228  and  _230
REMARK   92  A    between atoms: _230  and  _231
REMARK   93  A    between atoms: _230  and  _233
REMARK   94  A    between atoms: _233  and  _234
REMARK   95  A    between atoms: _237  and  _239
REMARK   96  A    between atoms: _239  and  _240
REMARK   97  A    between atoms: _239  and  _242
REMARK   98  A    between atoms: _242  and  _243
REMARK   99  A    between atoms: _246  and  _248
REMARK  100  A    between atoms: _248  and  _249
REMARK  101  A    between atoms: _248  and  _251
REMARK  102  A    between atoms: _254  and  _256
REMARK  103  A    between atoms: _256  and  _257
REMARK  104  A    between atoms: _256  and  _259
REMARK  105  A    between atoms: _259  and  _260
REMARK  106  A    between atoms: _265  and  _266
REMARK  107  A    between atoms: _268  and  _270
REMARK  108  A    between atoms: _270  and  _271
REMARK  109  A    between atoms: _270  and  _273
REMARK  110  A    between atoms: _275  and  _277
REMARK  111  A    between atoms: _277  and  _278
REMARK  112  A    between atoms: _280  and  _282
REMARK  113  A    between atoms: _282  and  _283
REMARK  114  A    between atoms: _282  and  _285
REMARK  115  A    between atoms: _288  and  _290
REMARK  116  A    between atoms: _290  and  _291
REMARK  117  A    between atoms: _294  and  _296
REMARK  118  A    between atoms: _296  and  _297
REMARK  119  A    between atoms: _299  and  _301
REMARK  120  A    between atoms: _301  and  _302
REMARK  121  A    between atoms: _301  and  _304
REMARK  122  A    between atoms: _304  and  _305
REMARK  123  A    between atoms: _308  and  _310
REMARK  124  A    between atoms: _310  and  _311
REMARK  125  A    between atoms: _310  and  _313
REMARK  126  A    between atoms: _316  and  _318
REMARK  127  A    between atoms: _318  and  _319
REMARK  128  A    between atoms: _321  and  _323
REMARK  129  A    between atoms: _323  and  _324
REMARK  130  A    between atoms: _323  and  _326
REMARK  131  A    between atoms: _326  and  _327
REMARK  132  A    between atoms: _327  and  _328
REMARK  133  A    between atoms: _331  and  _333
REMARK  134  A    between atoms: _333  and  _334
REMARK  135  A    between atoms: _333  and  _336
REMARK  136  A    between atoms: _339  and  _341
REMARK  137  A    between atoms: _341  and  _342
REMARK  138  A    between atoms: _341  and  _344
REMARK  139  A    between atoms: _344  and  _345
REMARK  140  A    between atoms: _348  and  _350
REMARK  141  A    between atoms: _350  and  _351
REMARK  142  A    between atoms: _350  and  _353
REMARK  143  A    between atoms: _353  and  _354
REMARK  144  A    between atoms: _357  and  _359
REMARK  145  A    between atoms: _359  and  _360
REMARK  146  A    between atoms: _359  and  _362
REMARK  147  A    between atoms: _362  and  _363
REMARK  148  A    between atoms: _366  and  _368
REMARK  149  A    between atoms: _368  and  _369
REMARK  150  A    between atoms: _368  and  _371
REMARK  151  A    between atoms: _371  and  _372
REMARK  152  A    between atoms: _377  and  _378
REMARK  153  A    between atoms: _380  and  _382
REMARK  154  A    between atoms: _382  and  _383
REMARK  155  A    between atoms: _382  and  _385
REMARK  156  A    between atoms: _388  and  _390
REMARK  157  A    between atoms: _390  and  _391
REMARK  158  A    between atoms: _394  and  _396
REMARK  159  A    between atoms: _396  and  _397
REMARK  160  A    between atoms: _396  and  _399
REMARK  161  A    between atoms: _399  and  _400
REMARK  162  A    between atoms: _400  and  _401
REMARK  163  A    between atoms: _401  and  _402
REMARK  164  A    between atoms: _411  and  _413
REMARK  165  A    between atoms: _413  and  _414
REMARK  166  A    between atoms: _413  and  _416
REMARK  167  A    between atoms: _416  and  _417
REMARK  168  A    between atoms: _417  and  _418
REMARK  169  A    between atoms: _418  and  _419
REMARK  170  A    between atoms: _428  and  _430
REMARK  171  A    between atoms: _430  and  _431
REMARK  172  A    between atoms: _430  and  _433
REMARK  173  A    between atoms: _433  and  _434
REMARK  174  A    between atoms: _437  and  _439
REMARK  175  A    between atoms: _439  and  _440
REMARK  176  A    between atoms: _442  and  _444
REMARK  177  A    between atoms: _444  and  _445
REMARK  178  A    between atoms: _444  and  _447
REMARK  179  A    between atoms: _447  and  _448
REMARK  180  A    between atoms: _448  and  _449
REMARK  181  A    between atoms: _452  and  _454
REMARK  182  A    between atoms: _454  and  _455
REMARK  183  A    between atoms: _454  and  _457
REMARK  184  A    between atoms: _457  and  _458
REMARK  185  A    between atoms: _460  and  _462
REMARK  186  A    between atoms: _462  and  _463
REMARK  187  A    between atoms: _462  and  _465
REMARK  188  A    between atoms: _465  and  _466
REMARK  189  A    between atoms: _469  and  _471
REMARK  190  A    between atoms: _471  and  _472
REMARK  191  A    between atoms: _471  and  _474
REMARK  192  A    between atoms: _474  and  _475
REMARK  193  A    between atoms: _475  and  _476
REMARK  194  A    between atoms: _481  and  _483
REMARK  195  A    between atoms: _483  and  _484
REMARK  196  A    between atoms: _483  and  _486
REMARK  197  A    between atoms: _486  and  _487
REMARK  198  A    between atoms: _492  and  _494
REMARK  199  A    between atoms: _494  and  _495
REMARK  200  A    between atoms: _494  and  _497
REMARK  201  A    between atoms: _497  and  _498
REMARK  202  A    between atoms: _501  and  _503
REMARK  203  A    between atoms: _503  and  _504
REMARK  204  A    between atoms: _503  and  _506
REMARK  205  A    between atoms: _506  and  _507
REMARK  206  A    between atoms: _507  and  _508
REMARK  207  A    between atoms: _508  and  _509
REMARK  208  A    between atoms: _518  and  _520
REMARK  209  A    between atoms: _520  and  _521
REMARK  210  A    between atoms: _520  and  _523
REMARK  211  A    between atoms: _523  and  _524
REMARK  212  A    between atoms: _527  and  _529
REMARK  213  A    between atoms: _529  and  _530
REMARK  214  A    between atoms: _529  and  _532
REMARK  215  A    between atoms: _532  and  _533
REMARK  216  A    between atoms: _536  and  _538
REMARK  217  A    between atoms: _538  and  _539
REMARK  218  A    between atoms: _538  and  _541
REMARK  219  A    between atoms: _541  and  _542
REMARK  220  A    between atoms: _547  and  _548
REMARK  221  A    between atoms: _550  and  _552
REMARK  222  A    between atoms: _552  and  _553
REMARK  223  A    between atoms: _552  and  _555
REMARK  224  A    between atoms: _558  and  _560
REMARK  225  A    between atoms: _560  and  _561
REMARK  226  A    between atoms: _560  and  _563
REMARK  227  A    between atoms: _563  and  _564
REMARK  228  A    between atoms: _570  and  _572
REMARK  229  A    between atoms: _572  and  _573
REMARK  230  A    between atoms: _572  and  _575
REMARK  231  A    between atoms: _575  and  _576
REMARK  232  A    between atoms: _579  and  _581
REMARK  233  A    between atoms: _581  and  _582
REMARK  234  A    between atoms: _585  and  _587
REMARK  235  A    between atoms: _587  and  _588
REMARK  236  A    between atoms: _591  and  _593
REMARK  237  A    between atoms: _593  and  _594
REMARK  238  A    between atoms: _593  and  _596
REMARK  239  A    between atoms: _596  and  _597
REMARK  240  A    between atoms: _602  and  _603
REMARK  241  A    between atoms: _605  and  _607
REMARK  242  A    between atoms: _607  and  _608
REMARK  243  A    between atoms: _607  and  _610
REMARK  244  A    between atoms: _610  and  _611
REMARK  245  A    between atoms: _611  and  _612
REMARK  246  A    between atoms: _612  and  _613
REMARK                            x       y       z     vdW  Elec       q    Type
REMARK                         _______ _______ _______ _____ _____    ______ ____
ROOT
ATOM      1  CA  VAL A   8      -6.600 -36.184   1.793  0.00  0.00    +0.149 C 
ENDROOT
BRANCH   1   2
ATOM      2  C   VAL A   8      -6.923 -35.497   3.129  0.00  0.00    +0.241 C 
ATOM      3  N   CYS A   9      -5.954 -34.775   3.679  0.00  0.00    -0.296 N 
ATOM      4  H   CYS A   9      -5.037 -34.684   3.198  0.00  0.00    +0.150 HD
ATOM      5  O   VAL A   8      -8.032 -35.618   3.653  0.00  0.00    -0.273 OA
BRANCH   3   6
ATOM      6  CA  CYS A   9      -6.176 -34.106   4.964  0.00  0.00    +0.160 C 
BRANCH   6   7
ATOM      7  C   CYS A   9      -7.253 -33.017   4.880  0.00  0.00    +0.242 C 
ATOM      8  O   CYS A   9      -8.050 -32.860   5.805  0.00  0.00    -0.273 OA
ATOM      9  N   ARG A  10      -7.265 -32.267   3.777  0.00  0.00    -0.297 N 
ATOM     10  H   ARG A  10      -6.507 -32.390   3.076  0.00  0.00    +0.150 HD
BRANCH   9  11
ATOM     11  CA  ARG A  10      -8.310 -31.279   3.523  0.00  0.00    +0.149 C 
BRANCH  11  12
ATOM     12  C   ARG A  10      -9.704 -31.912   3.474  0.00  0.00    +0.241 C 
ATOM     13  O   ARG A  10     -10.645 -31.405   4.079  0.00  0.00    -0.273 OA
ATOM     14  N   LYS A  11      -9.838 -33.004   2.726  0.00  0.00    -0.297 N 
ATOM     15  H   LYS A  11      -9.014 -33.359   2.199  0.00  0.00    +0.150 HD
BRANCH  14  16
ATOM     16  CA  LYS A  11     -11.111 -33.722   2.622  0.00  0.00    +0.149 C 
BRANCH  16  17
ATOM     17  C   LYS A  11     -11.591 -34.167   3.994  0.00  0.00    +0.241 C 
ATOM     18  N   ILE A  12     -10.653 -34.609   4.819  0.00  0.00    -0.297 N 
ATOM     19  H   ILE A  12      -9.666 -34.650   4.493  0.00  0.00    +0.150 HD
ATOM     20  O   LYS A  11     -12.783 -34.133   4.293  0.00  0.00    -0.273 OA
BRANCH  18  21
ATOM     21  CA  ILE A  12     -10.975 -35.040   6.175  0.00  0.00    +0.149 C 
BRANCH  21  22
ATOM     22  C   ILE A  12     -11.513 -33.854   6.997  0.00  0.00    +0.241 C 
ATOM     23  O   ILE A  12     -12.542 -33.960   7.655  0.00  0.00    -0.273 OA
ATOM     24  N   ASP A  13     -10.828 -32.719   6.931  0.00  0.00    -0.297 N 
ATOM     25  H   ASP A  13      -9.984 -32.668   6.326  0.00  0.00    +0.150 HD
BRANCH  24  26
ATOM     26  CA  ASP A  13     -11.237 -31.540   7.692  0.00  0.00    +0.160 C 
BRANCH  26  27
ATOM     27  C   ASP A  13     -12.601 -31.016   7.235  0.00  0.00    +0.241 C 
ATOM     28  O   ASP A  13     -13.376 -30.495   8.042  0.00  0.00    -0.273 OA
ATOM     29  N   ASP A  14     -12.891 -31.156   5.943  0.00  0.00    -0.298 N 
ATOM     30  H   ASP A  14     -12.205 -31.626   5.319  0.00  0.00    +0.150 HD
BRANCH  29  31
ATOM     31  CA  ASP A  14     -14.148 -30.667   5.378  0.00  0.00    +0.148 C 
BRANCH  31  32
ATOM     32  C   ASP A  14     -15.288 -31.691   5.438  0.00  0.00    +0.227 C 
ATOM     33  O   ASP A  14     -16.430 -31.376   5.098  0.00  0.00    -0.286 OA
ENDBRANCH  31  32
BRANCH  31  34
ATOM     34  CB  ASP A  14     -13.947 -30.234   3.917  0.00  0.00    +0.142 C 
BRANCH  34  35
ATOM     35  CG  ASP A  14     -13.063 -29.006   3.782  0.00  0.00    +0.367 C 
ATOM     36  OD2 ASP A  14     -12.987 -28.213   4.745  0.00  0.00    -0.246 OA
ATOM     37  OD1 ASP A  14     -12.447 -28.832   2.711  0.00  0.00    -0.246 OA
ENDBRANCH  34  35
ENDBRANCH  31  34
ENDBRANCH  29  31
ENDBRANCH  26  27
BRANCH  26  38
ATOM     38  CB  ASP A  13     -10.182 -30.433   7.584  0.00  0.00    +0.143 C 
BRANCH  38  39
ATOM     39  CG  ASP A  13     -10.468 -29.253   8.508  0.00  0.00    +0.367 C 
ATOM     40  OD2 ASP A  13     -10.664 -29.469   9.725  0.00  0.00    -0.246 OA
ATOM     41  OD1 ASP A  13     -10.483 -28.107   8.016  0.00  0.00    -0.246 OA
ENDBRANCH  38  39
ENDBRANCH  26  38
ENDBRANCH  24  26
ENDBRANCH  21  22
BRANCH  21  42
ATOM     42  CB  ILE A  12      -9.740 -35.688   6.856  0.00  0.00    +0.027 C 
ATOM     43  CG2 ILE A  12      -9.924 -35.788   8.368  0.00  0.00    +0.002 C 
BRANCH  42  44
ATOM     44  CG1 ILE A  12      -9.465 -37.080   6.265  0.00  0.00    +0.002 C 
ATOM     45  CD1 ILE A  12      -8.071 -37.632   6.615  0.00  0.00    +0.000 C 
ENDBRANCH  42  44
ENDBRANCH  21  42
ENDBRANCH  18  21
ENDBRANCH  16  17
BRANCH  16  46
ATOM     46  CB  LYS A  11     -10.967 -34.960   1.721  0.00  0.00    +0.029 C 
BRANCH  46  47
ATOM     47  CG  LYS A  11     -11.223 -34.693   0.245  0.00  0.00    +0.000 C 
BRANCH  47  48
ATOM     48  CD  LYS A  11     -12.713 -34.662  -0.079  0.00  0.00    -0.024 C 
BRANCH  48  49
ATOM     49  CE  LYS A  11     -12.950 -34.230  -1.519  0.00  0.00    -0.086 C 
BRANCH  49  50
ATOM     50  NZ  LYS A  11     -14.315 -34.594  -2.036  0.00  0.00    +0.380 N 
ATOM     51  HZ1 LYS A  11     -15.040 -34.135  -1.449  0.00  0.00    -0.089 HD
ATOM     52  HZ2 LYS A  11     -14.436 -35.626  -1.995  0.00  0.00    -0.089 HD
ATOM     53  HZ3 LYS A  11     -14.409 -34.271  -3.020  0.00  0.00    -0.089 HD
ENDBRANCH  49  50
ENDBRANCH  48  49
ENDBRANCH  47  48
ENDBRANCH  46  47
ENDBRANCH  16  46
ENDBRANCH  14  16
ENDBRANCH  11  12
BRANCH  11  54
ATOM     54  CB  ARG A  10      -8.042 -30.546   2.201  0.00  0.00    +0.033 C 
BRANCH  54  55
ATOM     55  CG  ARG A  10      -7.248 -29.262   2.330  0.00  0.00    +0.045 C 
BRANCH  55  56
ATOM     56  CD  ARG A  10      -8.061 -28.193   3.072  0.00  0.00    +0.174 C 
BRANCH  56  57
ATOM     57  NE  ARG A  10      -7.750 -28.181   4.493  0.00  0.00    -0.265 N 
ATOM     58  CZ  ARG A  10      -8.573 -27.762   5.450  0.00  0.00    +0.342 C 
ATOM     59  NH2 ARG A  10      -8.173 -27.799   6.711  0.00  0.00    -0.292 N 
ATOM     60 HH21 ARG A  10      -8.808 -27.474   7.468  0.00  0.00    +0.255 HD
ATOM     61 HH22 ARG A  10      -7.224 -28.153   6.945  0.00  0.00    +0.255 HD
ATOM     62  NH1 ARG A  10      -9.791 -27.323   5.157  0.00  0.00    -0.292 N 
ATOM     63 HH11 ARG A  10     -10.423 -26.999   5.916  0.00  0.00    +0.255 HD
ATOM     64 HH12 ARG A  10     -10.113 -27.304   4.168  0.00  0.00    +0.255 HD
ATOM     65  HE  ARG A  10      -6.813 -28.526   4.783  0.00  0.00    +0.259 HD
ENDBRANCH  56  57
ENDBRANCH  55  56
ENDBRANCH  54  55
ENDBRANCH  11  54
ENDBRANCH   9  11
ENDBRANCH   6   7
BRANCH   6  66
ATOM     66  CB  CYS A   9      -4.864 -33.557   5.527  0.00  0.00    +0.098 C 
ATOM     67  SG  CYS A   9      -3.662 -34.852   5.904  0.00  0.00    -0.080 S 
ENDBRANCH   6  66
ENDBRANCH   3   6
ENDBRANCH   1   2
BRANCH   1  69
ATOM     68  C   ALA A   7      -6.587 -34.149   0.472  0.00  0.00    +0.241 C 
ATOM     69  N   VAL A   8      -5.959 -35.249   0.875  0.00  0.00    -0.297 N 
ATOM     70  H   VAL A   8      -4.997 -35.446   0.531  0.00  0.00    +0.150 HD
ATOM     71  O   ALA A   7      -7.732 -33.881   0.819  0.00  0.00    -0.273 OA
BRANCH  68  72
ATOM     72  CA  ALA A   7      -5.819 -33.213  -0.459  0.00  0.00    +0.149 C 
ATOM     73  CB  ALA A   7      -5.923 -33.672  -1.935  0.00  0.00    +0.031 C 
BRANCH  72  76
ATOM     74  C   TYR A   6      -4.126 -32.513   1.110  0.00  0.00    +0.241 C 
ATOM     75  O   TYR A   6      -4.980 -32.052   1.866  0.00  0.00    -0.273 OA
ATOM     76  N   ALA A   7      -4.430 -33.110  -0.038  0.00  0.00    -0.297 N 
ATOM     77  H   ALA A   7      -3.675 -33.504  -0.635  0.00  0.00    +0.150 HD
BRANCH  74  78
ATOM     78  CA  TYR A   6      -2.648 -32.399   1.454  0.00  0.00    +0.153 C 
BRANCH  78  81
ATOM     79  C   ILE A   5      -2.243 -34.781   1.761  0.00  0.00    +0.241 C 
ATOM     80  O   ILE A   5      -3.137 -34.883   2.609  0.00  0.00    -0.273 OA
ATOM     81  N   TYR A   6      -1.934 -33.635   1.170  0.00  0.00    -0.297 N 
ATOM     82  H   TYR A   6      -1.156 -33.619   0.481  0.00  0.00    +0.150 HD
BRANCH  79  83
ATOM     83  CA  ILE A   5      -1.446 -35.997   1.305  0.00  0.00    +0.149 C 
BRANCH  83  85
ATOM     84  C   ALA A   4      -2.339 -36.103  -0.948  0.00  0.00    +0.241 C 
ATOM     85  N   ILE A   5      -1.288 -35.990  -0.147  0.00  0.00    -0.297 N 
ATOM     86  H   ILE A   5      -0.338 -35.895  -0.559  0.00  0.00    +0.150 HD
ATOM     87  O   ALA A   4      -3.483 -36.229  -0.520  0.00  0.00    -0.273 OA
BRANCH  84  88
ATOM     88  CA  ALA A   4      -2.056 -36.072  -2.458  0.00  0.00    +0.149 C 
ATOM     89  CB  ALA A   4      -1.504 -37.403  -2.925  0.00  0.00    +0.031 C 
BRANCH  88  92
ATOM     90  C   TRP A   3      -1.456 -33.727  -2.634  0.00  0.00    +0.241 C 
ATOM     91  O   TRP A   3      -2.525 -33.368  -2.144  0.00  0.00    -0.273 OA
ATOM     92  N   ALA A   4      -1.136 -35.001  -2.806  0.00  0.00    -0.297 N 
ATOM     93  H   ALA A   4      -0.204 -35.241  -3.200  0.00  0.00    +0.150 HD
BRANCH  90  94
ATOM     94  CA  TRP A   3      -0.419 -32.709  -3.096  0.00  0.00    +0.153 C 
BRANCH  94  97
ATOM     95  C   VAL A   2       1.166 -33.256  -1.320  0.00  0.00    +0.241 C 
ATOM     96  O   VAL A   2       0.314 -33.103  -0.448  0.00  0.00    -0.273 OA
ATOM     97  N   TRP A   3       0.922 -33.052  -2.615  0.00  0.00    -0.297 N 
ATOM     98  H   TRP A   3       1.701 -33.138  -3.299  0.00  0.00    +0.150 HD
BRANCH  95  99
ATOM     99  CA  VAL A   2       2.576 -33.694  -0.945  0.00  0.00    +0.148 C 
BRANCH  99 102
ATOM    100  C   ALA A   1       2.540 -35.900  -1.967  0.00  0.00    +0.238 C 
ATOM    101  O   ALA A   1       1.607 -36.250  -1.253  0.00  0.00    -0.274 OA
ATOM    102  N   VAL A   2       3.102 -34.699  -1.868  0.00  0.00    -0.297 N 
ATOM    103  H   VAL A   2       3.929 -34.471  -2.456  0.00  0.00    +0.150 HD
BRANCH 100 104
ATOM    104  CA  ALA A   1       3.112 -36.846  -3.026  0.00  0.00    +0.145 C 
ATOM    105  CB  ALA A   1       4.327 -37.574  -2.490  0.00  0.00    +0.028 C 
BRANCH 104 106
ATOM    106  N   ALA A   1       3.448 -36.122  -4.249  0.00  0.00    -0.238 NA
ATOM    107  H   ALA A   1       4.437 -36.090  -4.568  0.00  0.00    +0.142 HD
ENDBRANCH 104 106
ENDBRANCH 100 104
ENDBRANCH  99 102
BRANCH  99 108
ATOM    108  CB  VAL A   2       3.486 -32.452  -0.849  0.00  0.00    +0.027 C 
ATOM    109  CG2 VAL A   2       2.785 -31.358  -0.066  0.00  0.00    +0.002 C 
ATOM    110  CG1 VAL A   2       4.801 -32.820  -0.182  0.00  0.00    +0.002 C 
ENDBRANCH  99 108
ENDBRANCH  95  99
ENDBRANCH  94  97
BRANCH  94 111
ATOM    111  CB  TRP A   3      -0.455 -32.656  -4.628  0.00  0.00    +0.057 C 
BRANCH 111 112
ATOM    112  CG  TRP A   3       0.395 -31.596  -5.258  0.00  0.00    -0.002 A 
ATOM    113  CD1 TRP A   3       0.961 -30.524  -4.645  0.00  0.00    +0.068 A 
ATOM    114  NE1 TRP A   3       1.678 -29.779  -5.562  0.00  0.00    -0.352 N 
ATOM    115  HE1 TRP A   3       2.210 -28.911  -5.351  0.00  0.00    +0.166 HD
ATOM    116  CE2 TRP A   3       1.575 -30.368  -6.793  0.00  0.00    +0.056 A 
ATOM    117  CZ2 TRP A   3       2.114 -29.987  -8.024  0.00  0.00    +0.017 A 
ATOM    118  CH2 TRP A   3       1.843 -30.781  -9.105  0.00  0.00    +0.001 A 
ATOM    119  CZ3 TRP A   3       1.051 -31.925  -8.990  0.00  0.00    +0.000 A 
ATOM    120  CE3 TRP A   3       0.514 -32.304  -7.767  0.00  0.00    +0.001 A 
ATOM    121  CD2 TRP A   3       0.776 -31.515  -6.644  0.00  0.00    +0.013 A 
ENDBRANCH 111 112
ENDBRANCH  94 111
ENDBRANCH  90  94
ENDBRANCH  88  92
ENDBRANCH  84  88
ENDBRANCH  83  85
BRANCH  83 122
ATOM    122  CB  ILE A   5      -0.077 -36.072   2.001  0.00  0.00    +0.027 C 
ATOM    123  CG2 ILE A   5      -0.192 -35.707   3.482  0.00  0.00    +0.002 C 
BRANCH 122 124
ATOM    124  CG1 ILE A   5       0.489 -37.488   1.826  0.00  0.00    +0.002 C 
ATOM    125  CD1 ILE A   5       1.973 -37.620   2.116  0.00  0.00    +0.000 C 
ENDBRANCH 122 124
ENDBRANCH  83 122
ENDBRANCH  79  83
ENDBRANCH  78  81
BRANCH  78 126
ATOM    126  CB  TYR A   6      -2.047 -31.237   0.661  0.00  0.00    +0.055 C 
BRANCH 126 127
ATOM    127  CG  TYR A   6      -2.395 -29.880   1.222  0.00  0.00    -0.020 A 
ATOM    128  CD2 TYR A   6      -1.448 -29.135   1.908  0.00  0.00    -0.001 A 
ATOM    129  CE2 TYR A   6      -1.746 -27.893   2.424  0.00  0.00    +0.036 A 
ATOM    130  CZ  TYR A   6      -3.005 -27.367   2.259  0.00  0.00    +0.134 A 
ATOM    131  CE1 TYR A   6      -3.973 -28.077   1.573  0.00  0.00    +0.036 A 
ATOM    132  CD1 TYR A   6      -3.661 -29.331   1.055  0.00  0.00    -0.001 A 
BRANCH 130 133
ATOM    133  OH  TYR A   6      -3.273 -26.120   2.787  0.00  0.00    -0.506 OA
ATOM    134  HH  TYR A   6      -4.212 -25.875   2.591  0.00  0.00    +0.292 HD
ENDBRANCH 130 133
ENDBRANCH 126 127
ENDBRANCH  78 126
ENDBRANCH  74  78
ENDBRANCH  72  76
ENDBRANCH  68  72
ENDBRANCH   1  69
BRANCH   1 135
ATOM    135  CB  VAL A   8      -5.704 -37.408   2.077  0.00  0.00    +0.027 C 
ATOM    136  CG2 VAL A   8      -6.221 -38.164   3.267  0.00  0.00    +0.002 C 
ATOM    137  CG1 VAL A   8      -5.632 -38.330   0.851  0.00  0.00    +0.002 C 
ENDBRANCH   1 135
TORSDOF 53
REMARK  Name = ../refined-set-2016/3tfp/3tfp_pocket.pdb
REMARK  246 active torsions:
REMARK  status: ('A' for Active; 'I' for Inactive)
REMARK    1  A    between atoms: _1  and  _3
REMARK    2  A    between atoms: _3  and  _4
REMARK    3  A    between atoms: _3  and  _6
REMARK    4  A    between atoms: _6  and  _7
REMARK    5  A    between atoms: _10  and  _12
REMARK    6  A    between atoms: _12  and  _13
REMARK    7  A    between atoms: _12  and  _15
REMARK    8  A    between atoms: _15  and  _16
REMARK    9  A    between atoms: _16  and  _17
REMARK   10  A    between atoms: _19  and  _21
REMARK   11  A    between atoms: _21  and  _22
REMARK   12  A    between atoms: _21  and  _24
REMARK   13  A    between atoms: _24  and  _25
REMARK   14  A    between atoms: _30  and  _32
REMARK   15  A    between atoms: _32  and  _33
REMARK   16  A    between atoms: _32  and  _35
REMARK   17  A    between atoms: _35  and  _36
REMARK   18  A    between atoms: _38  and  _40
REMARK   19  A    between atoms: _40  and  _41
REMARK   20  A    between atoms: _40  and  _43
REMARK   21  A    between atoms: _43  and  _44
REMARK   22  A    between atoms: _50  and  _52
REMARK   23  A    between atoms: _52  and  _53
REMARK   24  A    between atoms: _52  and  _55
REMARK   25  A    between atoms: _55  and  _56
REMARK   26  A    between atoms: _58  and  _60
REMARK   27  A    between atoms: _60  and  _61
REMARK   28  A    between atoms: _60  and  _63
REMARK   29  A    between atoms: _63  and  _64
REMARK   30  A    between atoms: _70  and  _72
REMARK   31  A    between atoms: _72  and  _73
REMARK   32  A    between atoms: _76  and  _78
REMARK   33  A    between atoms: _78  and  _79
REMARK   34  A    between atoms: _78  and  _81
REMARK   35  A    between atoms: _84  and  _86
REMARK   36  A    between atoms: _86  and  _87
REMARK   37  A    between atoms: _86  and  _89
REMARK   38  A    between atoms: _89  and  _90
REMARK   39  A    between atoms: _100  and  _102
REMARK   40  A    between atoms: _102  and  _103
REMARK   41  A    between atoms: _106  and  _108
REMARK   42  A    between atoms: _108  and  _109
REMARK   43  A    between atoms: _108  and  _111
REMARK   44  A    between atoms: _111  and  _112
REMARK   45  A    between atoms: _115  and  _117
REMARK   46  A    between atoms: _117  and  _118
REMARK   47  A    between atoms: _117  and  _120
REMARK   48  A    between atoms: _120  and  _121
REMARK   49  A    between atoms: _126  and  _127
REMARK   50  A    between atoms: _129  and  _131
REMARK   51  A    between atoms: _131  and  _132
REMARK   52  A    between atoms: _135  and  _137
REMARK   53  A    between atoms: _137  and  _138
REMARK   54  A    between atoms: _137  and  _140
REMARK   55  A    between atoms: _143  and  _145
REMARK   56  A    between atoms: _145  and  _146
REMARK   57  A    between atoms: _145  and  _148
REMARK   58  A    between atoms: _150  and  _152
REMARK   59  A    between atoms: _152  and  _153
REMARK   60  A    between atoms: _152  and  _155
REMARK   61  A    between atoms: _155  and  _156
REMARK   62  A    between atoms: _156  and  _157
REMARK   63  A    between atoms: _157  and  _158
REMARK   64  A    between atoms: _167  and  _169
REMARK   65  A    between atoms: _169  and  _170
REMARK   66  A    between atoms: _169  and  _172
REMARK   67  A    between atoms: _172  and  _173
REMARK   68  A    between atoms: _173  and  _174
REMARK   69  A    between atoms: _174  and  _175
REMARK   70  A    between atoms: _175  and  _176
REMARK   71  A    between atoms: _180  and  _182
REMARK   72  A    between atoms: _182  and  _183
REMARK   73  A    between atoms: _182  and  _185
REMARK   74  A    between atoms: _185  and  _186
REMARK   75  A    between atoms: _189  and  _191
REMARK   76  A    between atoms: _191  and  _192
REMARK   77  A    between atoms: _191  and  _194
REMARK   78  A    between atoms: _194  and  _195
REMARK   79  A    between atoms: _198  and  _200
REMARK   80  A    between atoms: _200  and  _201
REMARK   81  A    between atoms: _200  and  _203
REMARK   82  A    between atoms: _203  and  _204
REMARK   83  A    between atoms: _207  and  _209
REMARK   84  A    between atoms: _209  and  _210
REMARK   85  A    between atoms: _209  and  _212
REMARK   86  A    between atoms: _212  and  _213
REMARK   87  A    between atoms: _219  and  _221
REMARK   88  A    between atoms: _221  and  _222
REMARK   89  A    between atoms: _221  and  _224
REMARK   90  A    between atoms: _224  and  _225
REMARK   91  A    between atoms: _228  and  _230
REMARK   92  A    between atoms: _230  and  _231
REMARK   93  A    between atoms: _230  and  _233
REMARK   94  A    between atoms: _233  and  _234
REMARK   95  A    between atoms: _237  and  _239
REMARK   96  A    between atoms: _239  and  _240
REMARK   97  A    between atoms: _239  and  _242
REMARK   98  A    between atoms: _242  and  _243
REMARK   99  A    between atoms: _246  and  _248
REMARK  100  A    between atoms: _248  and  _249
REMARK  101  A    between atoms: _248  and  _251
REMARK  102  A    between atoms: _254  and  _256
REMARK  103  A    between atoms: _256  and  _257
REMARK  104  A    between atoms: _256  and  _259
REMARK  105  A    between atoms: _259  and  _260
REMARK  106  A    between atoms: _265  and  _266
REMARK  107  A    between atoms: _268  and  _270
REMARK  108  A    between atoms: _270  and  _271
REMARK  109  A    between atoms: _270  and  _273
REMARK  110  A    between atoms: _275  and  _277
REMARK  111  A    between atoms: _277  and  _278
REMARK  112  A    between atoms: _280  and  _282
REMARK  113  A    between atoms: _282  and  _283
REMARK  114  A    between atoms: _282  and  _285
REMARK  115  A    between atoms: _288  and  _290
REMARK  116  A    between atoms: _290  and  _291
REMARK  117  A    between atoms: _294  and  _296
REMARK  118  A    between atoms: _296  and  _297
REMARK  119  A    between atoms: _299  and  _301
REMARK  120  A    between atoms: _301  and  _302
REMARK  121  A    between atoms: _301  and  _304
REMARK  122  A    between atoms: _304  and  _305
REMARK  123  A    between atoms: _308  and  _310
REMARK  124  A    between atoms: _310  and  _311
REMARK  125  A    between atoms: _310  and  _313
REMARK  126  A    between atoms: _316  and  _318
REMARK  127  A    between atoms: _318  and  _319
REMARK  128  A    between atoms: _321  and  _323
REMARK  129  A    between atoms: _323  and  _324
REMARK  130  A    between atoms: _323  and  _326
REMARK  131  A    between atoms: _326  and  _327
REMARK  132  A    between atoms: _327  and  _328
REMARK  133  A    between atoms: _331  and  _333
REMARK  134  A    between atoms: _333  and  _334
REMARK  135  A    between atoms: _333  and  _336
REMARK  136  A    between atoms: _339  and  _341
REMARK  137  A    between atoms: _341  and  _342
REMARK  138  A    between atoms: _341  and  _344
REMARK  139  A    between atoms: _344  and  _345
REMARK  140  A    between atoms: _348  and  _350
REMARK  141  A    between atoms: _350  and  _351
REMARK  142  A    between atoms: _350  and  _353
REMARK  143  A    between atoms: _353  and  _354
REMARK  144  A    between atoms: _357  and  _359
REMARK  145  A    between atoms: _359  and  _360
REMARK  146  A    between atoms: _359  and  _362
REMARK  147  A    between atoms: _362  and  _363
REMARK  148  A    between atoms: _366  and  _368
REMARK  149  A    between atoms: _368  and  _369
REMARK  150  A    between atoms: _368  and  _371
REMARK  151  A    between atoms: _371  and  _372
REMARK  152  A    between atoms: _377  and  _378
REMARK  153  A    between atoms: _380  and  _382
REMARK  154  A    between atoms: _382  and  _383
REMARK  155  A    between atoms: _382  and  _385
REMARK  156  A    between atoms: _388  and  _390
REMARK  157  A    between atoms: _390  and  _391
REMARK  158  A    between atoms: _394  and  _396
REMARK  159  A    between atoms: _396  and  _397
REMARK  160  A    between atoms: _396  and  _399
REMARK  161  A    between atoms: _399  and  _400
REMARK  162  A    between atoms: _400  and  _401
REMARK  163  A    between atoms: _401  and  _402
REMARK  164  A    between atoms: _411  and  _413
REMARK  165  A    between atoms: _413  and  _414
REMARK  166  A    between atoms: _413  and  _416
REMARK  167  A    between atoms: _416  and  _417
REMARK  168  A    between atoms: _417  and  _418
REMARK  169  A    between atoms: _418  and  _419
REMARK  170  A    between atoms: _428  and  _430
REMARK  171  A    between atoms: _430  and  _431
REMARK  172  A    between atoms: _430  and  _433
REMARK  173  A    between atoms: _433  and  _434
REMARK  174  A    between atoms: _437  and  _439
REMARK  175  A    between atoms: _439  and  _440
REMARK  176  A    between atoms: _442  and  _444
REMARK  177  A    between atoms: _444  and  _445
REMARK  178  A    between atoms: _444  and  _447
REMARK  179  A    between atoms: _447  and  _448
REMARK  180  A    between atoms: _448  and  _449
REMARK  181  A    between atoms: _452  and  _454
REMARK  182  A    between atoms: _454  and  _455
REMARK  183  A    between atoms: _454  and  _457
REMARK  184  A    between atoms: _457  and  _458
REMARK  185  A    between atoms: _460  and  _462
REMARK  186  A    between atoms: _462  and  _463
REMARK  187  A    between atoms: _462  and  _465
REMARK  188  A    between atoms: _465  and  _466
REMARK  189  A    between atoms: _469  and  _471
REMARK  190  A    between atoms: _471  and  _472
REMARK  191  A    between atoms: _471  and  _474
REMARK  192  A    between atoms: _474  and  _475
REMARK  193  A    between atoms: _475  and  _476
REMARK  194  A    between atoms: _481  and  _483
REMARK  195  A    between atoms: _483  and  _484
REMARK  196  A    between atoms: _483  and  _486
REMARK  197  A    between atoms: _486  and  _487
REMARK  198  A    between atoms: _492  and  _494
REMARK  199  A    between atoms: _494  and  _495
REMARK  200  A    between atoms: _494  and  _497
REMARK  201  A    between atoms: _497  and  _498
REMARK  202  A    between atoms: _501  and  _503
REMARK  203  A    between atoms: _503  and  _504
REMARK  204  A    between atoms: _503  and  _506
REMARK  205  A    between atoms: _506  and  _507
REMARK  206  A    between atoms: _507  and  _508
REMARK  207  A    between atoms: _508  and  _509
REMARK  208  A    between atoms: _518  and  _520
REMARK  209  A    between atoms: _520  and  _521
REMARK  210  A    between atoms: _520  and  _523
REMARK  211  A    between atoms: _523  and  _524
REMARK  212  A    between atoms: _527  and  _529
REMARK  213  A    between atoms: _529  and  _530
REMARK  214  A    between atoms: _529  and  _532
REMARK  215  A    between atoms: _532  and  _533
REMARK  216  A    between atoms: _536  and  _538
REMARK  217  A    between atoms: _538  and  _539
REMARK  218  A    between atoms: _538  and  _541
REMARK  219  A    between atoms: _541  and  _542
REMARK  220  A    between atoms: _547  and  _548
REMARK  221  A    between atoms: _550  and  _552
REMARK  222  A    between atoms: _552  and  _553
REMARK  223  A    between atoms: _552  and  _555
REMARK  224  A    between atoms: _558  and  _560
REMARK  225  A    between atoms: _560  and  _561
REMARK  226  A    between atoms: _560  and  _563
REMARK  227  A    between atoms: _563  and  _564
REMARK  228  A    between atoms: _570  and  _572
REMARK  229  A    between atoms: _572  and  _573
REMARK  230  A    between atoms: _572  and  _575
REMARK  231  A    between atoms: _575  and  _576
REMARK  232  A    between atoms: _579  and  _581
REMARK  233  A    between atoms: _581  and  _582
REMARK  234  A    between atoms: _585  and  _587
REMARK  235  A    between atoms: _587  and  _588
REMARK  236  A    between atoms: _591  and  _593
REMARK  237  A    between atoms: _593  and  _594
REMARK  238  A    between atoms: _593  and  _596
REMARK  239  A    between atoms: _596  and  _597
REMARK  240  A    between atoms: _602  and  _603
REMARK  241  A    between atoms: _605  and  _607
REMARK  242  A    between atoms: _607  and  _608
REMARK  243  A    between atoms: _607  and  _610
REMARK  244  A    between atoms: _610  and  _611
REMARK  245  A    between atoms: _611  and  _612
REMARK  246  A    between atoms: _612  and  _613
REMARK                            x       y       z     vdW  Elec       q    Type
REMARK                         _______ _______ _______ _____ _____    ______ ____
ROOT
ATOM      1  CB  PHE A   1      -4.289 -41.081   8.223  0.00  0.00    +0.051 C 
ENDROOT
BRANCH   1   2
ATOM      2  CG  PHE A   1      -3.666 -40.437   6.999  0.00  0.00    -0.020 A 
ATOM      3  CD2 PHE A   1      -3.896 -39.103   6.690  0.00  0.00    -0.004 A 
ATOM      4  CE2 PHE A   1      -3.336 -38.526   5.557  0.00  0.00    -0.000 A 
ATOM      5  CZ  PHE A   1      -2.547 -39.281   4.714  0.00  0.00    -0.000 A 
ATOM      6  CE1 PHE A   1      -2.314 -40.616   5.000  0.00  0.00    -0.000 A 
ATOM      7  CD1 PHE A   1      -2.876 -41.189   6.135  0.00  0.00    -0.004 A 
ENDBRANCH   1   2
BRANCH   1   8
ATOM      8  CA  PHE A   1      -4.101 -40.293   9.529  0.00  0.00    +0.137 C 
BRANCH   8   9
ATOM      9  N   PHE A   1      -2.817 -40.614  10.156  0.00  0.00    -0.239 NA
ATOM     10  H   PHE A   1      -2.213 -41.346   9.731  0.00  0.00    +0.142 HD
ENDBRANCH   8   9
BRANCH   8  11
ATOM     11  C   PHE A   1      -5.257 -40.623  10.484  0.00  0.00    +0.224 C 
ATOM     12  O   PHE A   1      -6.217 -39.868  10.598  0.00  0.00    -0.287 OA
ENDBRANCH   8  11
ENDBRANCH   1   8
TORSDOF 4
REMARK  Name = ../refined-set-2016/3tfp/3tfp_pocket.pdb
REMARK  246 active torsions:
REMARK  status: ('A' for Active; 'I' for Inactive)
REMARK    1  A    between atoms: _1  and  _3
REMARK    2  A    between atoms: _3  and  _4
REMARK    3  A    between atoms: _3  and  _6
REMARK    4  A    between atoms: _6  and  _7
REMARK    5  A    between atoms: _10  and  _12
REMARK    6  A    between atoms: _12  and  _13
REMARK    7  A    between atoms: _12  and  _15
REMARK    8  A    between atoms: _15  and  _16
REMARK    9  A    between atoms: _16  and  _17
REMARK   10  A    between atoms: _19  and  _21
REMARK   11  A    between atoms: _21  and  _22
REMARK   12  A    between atoms: _21  and  _24
REMARK   13  A    between atoms: _24  and  _25
REMARK   14  A    between atoms: _30  and  _32
REMARK   15  A    between atoms: _32  and  _33
REMARK   16  A    between atoms: _32  and  _35
REMARK   17  A    between atoms: _35  and  _36
REMARK   18  A    between atoms: _38  and  _40
REMARK   19  A    between atoms: _40  and  _41
REMARK   20  A    between atoms: _40  and  _43
REMARK   21  A    between atoms: _43  and  _44
REMARK   22  A    between atoms: _50  and  _52
REMARK   23  A    between atoms: _52  and  _53
REMARK   24  A    between atoms: _52  and  _55
REMARK   25  A    between atoms: _55  and  _56
REMARK   26  A    between atoms: _58  and  _60
REMARK   27  A    between atoms: _60  and  _61
REMARK   28  A    between atoms: _60  and  _63
REMARK   29  A    between atoms: _63  and  _64
REMARK   30  A    between atoms: _70  and  _72
REMARK   31  A    between atoms: _72  and  _73
REMARK   32  A    between atoms: _76  and  _78
REMARK   33  A    between atoms: _78  and  _79
REMARK   34  A    between atoms: _78  and  _81
REMARK   35  A    between atoms: _84  and  _86
REMARK   36  A    between atoms: _86  and  _87
REMARK   37  A    between atoms: _86  and  _89
REMARK   38  A    between atoms: _89  and  _90
REMARK   39  A    between atoms: _100  and  _102
REMARK   40  A    between atoms: _102  and  _103
REMARK   41  A    between atoms: _106  and  _108
REMARK   42  A    between atoms: _108  and  _109
REMARK   43  A    between atoms: _108  and  _111
REMARK   44  A    between atoms: _111  and  _112
REMARK   45  A    between atoms: _115  and  _117
REMARK   46  A    between atoms: _117  and  _118
REMARK   47  A    between atoms: _117  and  _120
REMARK   48  A    between atoms: _120  and  _121
REMARK   49  A    between atoms: _126  and  _127
REMARK   50  A    between atoms: _129  and  _131
REMARK   51  A    between atoms: _131  and  _132
REMARK   52  A    between atoms: _135  and  _137
REMARK   53  A    between atoms: _137  and  _138
REMARK   54  A    between atoms: _137  and  _140
REMARK   55  A    between atoms: _143  and  _145
REMARK   56  A    between atoms: _145  and  _146
REMARK   57  A    between atoms: _145  and  _148
REMARK   58  A    between atoms: _150  and  _152
REMARK   59  A    between atoms: _152  and  _153
REMARK   60  A    between atoms: _152  and  _155
REMARK   61  A    between atoms: _155  and  _156
REMARK   62  A    between atoms: _156  and  _157
REMARK   63  A    between atoms: _157  and  _158
REMARK   64  A    between atoms: _167  and  _169
REMARK   65  A    between atoms: _169  and  _170
REMARK   66  A    between atoms: _169  and  _172
REMARK   67  A    between atoms: _172  and  _173
REMARK   68  A    between atoms: _173  and  _174
REMARK   69  A    between atoms: _174  and  _175
REMARK   70  A    between atoms: _175  and  _176
REMARK   71  A    between atoms: _180  and  _182
REMARK   72  A    between atoms: _182  and  _183
REMARK   73  A    between atoms: _182  and  _185
REMARK   74  A    between atoms: _185  and  _186
REMARK   75  A    between atoms: _189  and  _191
REMARK   76  A    between atoms: _191  and  _192
REMARK   77  A    between atoms: _191  and  _194
REMARK   78  A    between atoms: _194  and  _195
REMARK   79  A    between atoms: _198  and  _200
REMARK   80  A    between atoms: _200  and  _201
REMARK   81  A    between atoms: _200  and  _203
REMARK   82  A    between atoms: _203  and  _204
REMARK   83  A    between atoms: _207  and  _209
REMARK   84  A    between atoms: _209  and  _210
REMARK   85  A    between atoms: _209  and  _212
REMARK   86  A    between atoms: _212  and  _213
REMARK   87  A    between atoms: _219  and  _221
REMARK   88  A    between atoms: _221  and  _222
REMARK   89  A    between atoms: _221  and  _224
REMARK   90  A    between atoms: _224  and  _225
REMARK   91  A    between atoms: _228  and  _230
REMARK   92  A    between atoms: _230  and  _231
REMARK   93  A    between atoms: _230  and  _233
REMARK   94  A    between atoms: _233  and  _234
REMARK   95  A    between atoms: _237  and  _239
REMARK   96  A    between atoms: _239  and  _240
REMARK   97  A    between atoms: _239  and  _242
REMARK   98  A    between atoms: _242  and  _243
REMARK   99  A    between atoms: _246  and  _248
REMARK  100  A    between atoms: _248  and  _249
REMARK  101  A    between atoms: _248  and  _251
REMARK  102  A    between atoms: _254  and  _256
REMARK  103  A    between atoms: _256  and  _257
REMARK  104  A    between atoms: _256  and  _259
REMARK  105  A    between atoms: _259  and  _260
REMARK  106  A    between atoms: _265  and  _266
REMARK  107  A    between atoms: _268  and  _270
REMARK  108  A    between atoms: _270  and  _271
REMARK  109  A    between atoms: _270  and  _273
REMARK  110  A    between atoms: _275  and  _277
REMARK  111  A    between atoms: _277  and  _278
REMARK  112  A    between atoms: _280  and  _282
REMARK  113  A    between atoms: _282  and  _283
REMARK  114  A    between atoms: _282  and  _285
REMARK  115  A    between atoms: _288  and  _290
REMARK  116  A    between atoms: _290  and  _291
REMARK  117  A    between atoms: _294  and  _296
REMARK  118  A    between atoms: _296  and  _297
REMARK  119  A    between atoms: _299  and  _301
REMARK  120  A    between atoms: _301  and  _302
REMARK  121  A    between atoms: _301  and  _304
REMARK  122  A    between atoms: _304  and  _305
REMARK  123  A    between atoms: _308  and  _310
REMARK  124  A    between atoms: _310  and  _311
REMARK  125  A    between atoms: _310  and  _313
REMARK  126  A    between atoms: _316  and  _318
REMARK  127  A    between atoms: _318  and  _319
REMARK  128  A    between atoms: _321  and  _323
REMARK  129  A    between atoms: _323  and  _324
REMARK  130  A    between atoms: _323  and  _326
REMARK  131  A    between atoms: _326  and  _327
REMARK  132  A    between atoms: _327  and  _328
REMARK  133  A    between atoms: _331  and  _333
REMARK  134  A    between atoms: _333  and  _334
REMARK  135  A    between atoms: _333  and  _336
REMARK  136  A    between atoms: _339  and  _341
REMARK  137  A    between atoms: _341  and  _342
REMARK  138  A    between atoms: _341  and  _344
REMARK  139  A    between atoms: _344  and  _345
REMARK  140  A    between atoms: _348  and  _350
REMARK  141  A    between atoms: _350  and  _351
REMARK  142  A    between atoms: _350  and  _353
REMARK  143  A    between atoms: _353  and  _354
REMARK  144  A    between atoms: _357  and  _359
REMARK  145  A    between atoms: _359  and  _360
REMARK  146  A    between atoms: _359  and  _362
REMARK  147  A    between atoms: _362  and  _363
REMARK  148  A    between atoms: _366  and  _368
REMARK  149  A    between atoms: _368  and  _369
REMARK  150  A    between atoms: _368  and  _371
REMARK  151  A    between atoms: _371  and  _372
REMARK  152  A    between atoms: _377  and  _378
REMARK  153  A    between atoms: _380  and  _382
REMARK  154  A    between atoms: _382  and  _383
REMARK  155  A    between atoms: _382  and  _385
REMARK  156  A    between atoms: _388  and  _390
REMARK  157  A    between atoms: _390  and  _391
REMARK  158  A    between atoms: _394  and  _396
REMARK  159  A    between atoms: _396  and  _397
REMARK  160  A    between atoms: _396  and  _399
REMARK  161  A    between atoms: _399  and  _400
REMARK  162  A    between atoms: _400  and  _401
REMARK  163  A    between atoms: _401  and  _402
REMARK  164  A    between atoms: _411  and  _413
REMARK  165  A    between atoms: _413  and  _414
REMARK  166  A    between atoms: _413  and  _416
REMARK  167  A    between atoms: _416  and  _417
REMARK  168  A    between atoms: _417  and  _418
REMARK  169  A    between atoms: _418  and  _419
REMARK  170  A    between atoms: _428  and  _430
REMARK  171  A    between atoms: _430  and  _431
REMARK  172  A    between atoms: _430  and  _433
REMARK  173  A    between atoms: _433  and  _434
REMARK  174  A    between atoms: _437  and  _439
REMARK  175  A    between atoms: _439  and  _440
REMARK  176  A    between atoms: _442  and  _444
REMARK  177  A    between atoms: _444  and  _445
REMARK  178  A    between atoms: _444  and  _447
REMARK  179  A    between atoms: _447  and  _448
REMARK  180  A    between atoms: _448  and  _449
REMARK  181  A    between atoms: _452  and  _454
REMARK  182  A    between atoms: _454  and  _455
REMARK  183  A    between atoms: _454  and  _457
REMARK  184  A    between atoms: _457  and  _458
REMARK  185  A    between atoms: _460  and  _462
REMARK  186  A    between atoms: _462  and  _463
REMARK  187  A    between atoms: _462  and  _465
REMARK  188  A    between atoms: _465  and  _466
REMARK  189  A    between atoms: _469  and  _471
REMARK  190  A    between atoms: _471  and  _472
REMARK  191  A    between atoms: _471  and  _474
REMARK  192  A    between atoms: _474  and  _475
REMARK  193  A    between atoms: _475  and  _476
REMARK  194  A    between atoms: _481  and  _483
REMARK  195  A    between atoms: _483  and  _484
REMARK  196  A    between atoms: _483  and  _486
REMARK  197  A    between atoms: _486  and  _487
REMARK  198  A    between atoms: _492  and  _494
REMARK  199  A    between atoms: _494  and  _495
REMARK  200  A    between atoms: _494  and  _497
REMARK  201  A    between atoms: _497  and  _498
REMARK  202  A    between atoms: _501  and  _503
REMARK  203  A    between atoms: _503  and  _504
REMARK  204  A    between atoms: _503  and  _506
REMARK  205  A    between atoms: _506  and  _507
REMARK  206  A    between atoms: _507  and  _508
REMARK  207  A    between atoms: _508  and  _509
REMARK  208  A    between atoms: _518  and  _520
REMARK  209  A    between atoms: _520  and  _521
REMARK  210  A    between atoms: _520  and  _523
REMARK  211  A    between atoms: _523  and  _524
REMARK  212  A    between atoms: _527  and  _529
REMARK  213  A    between atoms: _529  and  _530
REMARK  214  A    between atoms: _529  and  _532
REMARK  215  A    between atoms: _532  and  _533
REMARK  216  A    between atoms: _536  and  _538
REMARK  217  A    between atoms: _538  and  _539
REMARK  218  A    between atoms: _538  and  _541
REMARK  219  A    between atoms: _541  and  _542
REMARK  220  A    between atoms: _547  and  _548
REMARK  221  A    between atoms: _550  and  _552
REMARK  222  A    between atoms: _552  and  _553
REMARK  223  A    between atoms: _552  and  _555
REMARK  224  A    between atoms: _558  and  _560
REMARK  225  A    between atoms: _560  and  _561
REMARK  226  A    between atoms: _560  and  _563
REMARK  227  A    between atoms: _563  and  _564
REMARK  228  A    between atoms: _570  and  _572
REMARK  229  A    between atoms: _572  and  _573
REMARK  230  A    between atoms: _572  and  _575
REMARK  231  A    between atoms: _575  and  _576
REMARK  232  A    between atoms: _579  and  _581
REMARK  233  A    between atoms: _581  and  _582
REMARK  234  A    between atoms: _585  and  _587
REMARK  235  A    between atoms: _587  and  _588
REMARK  236  A    between atoms: _591  and  _593
REMARK  237  A    between atoms: _593  and  _594
REMARK  238  A    between atoms: _593  and  _596
REMARK  239  A    between atoms: _596  and  _597
REMARK  240  A    between atoms: _602  and  _603
REMARK  241  A    between atoms: _605  and  _607
REMARK  242  A    between atoms: _607  and  _608
REMARK  243  A    between atoms: _607  and  _610
REMARK  244  A    between atoms: _610  and  _611
REMARK  245  A    between atoms: _611  and  _612
REMARK  246  A    between atoms: _612  and  _613
REMARK                            x       y       z     vdW  Elec       q    Type
REMARK                         _______ _______ _______ _____ _____    ______ ____
ROOT
ATOM      1  C   LEU A   1      -7.699 -36.970  12.482  0.00  0.00    +0.238 C 
ATOM      2  O   LEU A   1      -8.481 -36.087  12.846  0.00  0.00    -0.274 OA
ATOM      3  N   ILE A   2      -8.109 -38.127  11.974  0.00  0.00    -0.298 N 
ATOM      4  H   ILE A   2      -7.406 -38.827  11.662  0.00  0.00    +0.150 HD
ENDROOT
BRANCH   1   5
ATOM      5  CA  LEU A   1      -6.186 -36.768  12.579  0.00  0.00    +0.145 C 
BRANCH   5   6
ATOM      6  N   LEU A   1      -5.531 -37.944  13.139  0.00  0.00    -0.238 NA
ATOM      7  H   LEU A   1      -4.818 -38.449  12.576  0.00  0.00    +0.142 HD
ENDBRANCH   5   6
BRANCH   5   8
ATOM      8  CB  LEU A   1      -5.610 -36.436  11.194  0.00  0.00    +0.026 C 
BRANCH   8   9
ATOM      9  CG  LEU A   1      -6.397 -35.449  10.324  0.00  0.00    +0.002 C 
ATOM     10  CD2 LEU A   1      -6.489 -34.076  10.965  0.00  0.00    +0.000 C 
ATOM     11  CD1 LEU A   1      -5.742 -35.345   8.936  0.00  0.00    +0.000 C 
ENDBRANCH   8   9
ENDBRANCH   5   8
ENDBRANCH   1   5
BRANCH   3  12
ATOM     12  CA  ILE A   2      -9.532 -38.432  11.847  0.00  0.00    +0.137 C 
BRANCH  12  13
ATOM     13  C   ILE A   2     -10.220 -38.430  13.216  0.00  0.00    +0.227 C 
ATOM     14  O   ILE A   2     -11.322 -37.900  13.360  0.00  0.00    -0.286 OA
ENDBRANCH  12  13
BRANCH  12  15
ATOM     15  CB  ILE A   2      -9.764 -39.780  11.124  0.00  0.00    +0.026 C 
ATOM     16  CG2 ILE A   2     -11.239 -40.201  11.222  0.00  0.00    +0.002 C 
BRANCH  15  17
ATOM     17  CG1 ILE A   2      -9.345 -39.656   9.655  0.00  0.00    +0.002 C 
ATOM     18  CD1 ILE A   2      -9.352 -40.974   8.883  0.00  0.00    +0.000 C 
ENDBRANCH  15  17
ENDBRANCH  12  15
ENDBRANCH   3  12
TORSDOF 8
REMARK  Name = ../refined-set-2016/3tfp/3tfp_pocket.pdb
REMARK  246 active torsions:
REMARK  status: ('A' for Active; 'I' for Inactive)
REMARK    1  A    between atoms: _1  and  _3
REMARK    2  A    between atoms: _3  and  _4
REMARK    3  A    between atoms: _3  and  _6
REMARK    4  A    between atoms: _6  and  _7
REMARK    5  A    between atoms: _10  and  _12
REMARK    6  A    between atoms: _12  and  _13
REMARK    7  A    between atoms: _12  and  _15
REMARK    8  A    between atoms: _15  and  _16
REMARK    9  A    between atoms: _16  and  _17
REMARK   10  A    between atoms: _19  and  _21
REMARK   11  A    between atoms: _21  and  _22
REMARK   12  A    between atoms: _21  and  _24
REMARK   13  A    between atoms: _24  and  _25
REMARK   14  A    between atoms: _30  and  _32
REMARK   15  A    between atoms: _32  and  _33
REMARK   16  A    between atoms: _32  and  _35
REMARK   17  A    between atoms: _35  and  _36
REMARK   18  A    between atoms: _38  and  _40
REMARK   19  A    between atoms: _40  and  _41
REMARK   20  A    between atoms: _40  and  _43
REMARK   21  A    between atoms: _43  and  _44
REMARK   22  A    between atoms: _50  and  _52
REMARK   23  A    between atoms: _52  and  _53
REMARK   24  A    between atoms: _52  and  _55
REMARK   25  A    between atoms: _55  and  _56
REMARK   26  A    between atoms: _58  and  _60
REMARK   27  A    between atoms: _60  and  _61
REMARK   28  A    between atoms: _60  and  _63
REMARK   29  A    between atoms: _63  and  _64
REMARK   30  A    between atoms: _70  and  _72
REMARK   31  A    between atoms: _72  and  _73
REMARK   32  A    between atoms: _76  and  _78
REMARK   33  A    between atoms: _78  and  _79
REMARK   34  A    between atoms: _78  and  _81
REMARK   35  A    between atoms: _84  and  _86
REMARK   36  A    between atoms: _86  and  _87
REMARK   37  A    between atoms: _86  and  _89
REMARK   38  A    between atoms: _89  and  _90
REMARK   39  A    between atoms: _100  and  _102
REMARK   40  A    between atoms: _102  and  _103
REMARK   41  A    between atoms: _106  and  _108
REMARK   42  A    between atoms: _108  and  _109
REMARK   43  A    between atoms: _108  and  _111
REMARK   44  A    between atoms: _111  and  _112
REMARK   45  A    between atoms: _115  and  _117
REMARK   46  A    between atoms: _117  and  _118
REMARK   47  A    between atoms: _117  and  _120
REMARK   48  A    between atoms: _120  and  _121
REMARK   49  A    between atoms: _126  and  _127
REMARK   50  A    between atoms: _129  and  _131
REMARK   51  A    between atoms: _131  and  _132
REMARK   52  A    between atoms: _135  and  _137
REMARK   53  A    between atoms: _137  and  _138
REMARK   54  A    between atoms: _137  and  _140
REMARK   55  A    between atoms: _143  and  _145
REMARK   56  A    between atoms: _145  and  _146
REMARK   57  A    between atoms: _145  and  _148
REMARK   58  A    between atoms: _150  and  _152
REMARK   59  A    between atoms: _152  and  _153
REMARK   60  A    between atoms: _152  and  _155
REMARK   61  A    between atoms: _155  and  _156
REMARK   62  A    between atoms: _156  and  _157
REMARK   63  A    between atoms: _157  and  _158
REMARK   64  A    between atoms: _167  and  _169
REMARK   65  A    between atoms: _169  and  _170
REMARK   66  A    between atoms: _169  and  _172
REMARK   67  A    between atoms: _172  and  _173
REMARK   68  A    between atoms: _173  and  _174
REMARK   69  A    between atoms: _174  and  _175
REMARK   70  A    between atoms: _175  and  _176
REMARK   71  A    between atoms: _180  and  _182
REMARK   72  A    between atoms: _182  and  _183
REMARK   73  A    between atoms: _182  and  _185
REMARK   74  A    between atoms: _185  and  _186
REMARK   75  A    between atoms: _189  and  _191
REMARK   76  A    between atoms: _191  and  _192
REMARK   77  A    between atoms: _191  and  _194
REMARK   78  A    between atoms: _194  and  _195
REMARK   79  A    between atoms: _198  and  _200
REMARK   80  A    between atoms: _200  and  _201
REMARK   81  A    between atoms: _200  and  _203
REMARK   82  A    between atoms: _203  and  _204
REMARK   83  A    between atoms: _207  and  _209
REMARK   84  A    between atoms: _209  and  _210
REMARK   85  A    between atoms: _209  and  _212
REMARK   86  A    between atoms: _212  and  _213
REMARK   87  A    between atoms: _219  and  _221
REMARK   88  A    between atoms: _221  and  _222
REMARK   89  A    between atoms: _221  and  _224
REMARK   90  A    between atoms: _224  and  _225
REMARK   91  A    between atoms: _228  and  _230
REMARK   92  A    between atoms: _230  and  _231
REMARK   93  A    between atoms: _230  and  _233
REMARK   94  A    between atoms: _233  and  _234
REMARK   95  A    between atoms: _237  and  _239
REMARK   96  A    between atoms: _239  and  _240
REMARK   97  A    between atoms: _239  and  _242
REMARK   98  A    between atoms: _242  and  _243
REMARK   99  A    between atoms: _246  and  _248
REMARK  100  A    between atoms: _248  and  _249
REMARK  101  A    between atoms: _248  and  _251
REMARK  102  A    between atoms: _254  and  _256
REMARK  103  A    between atoms: _256  and  _257
REMARK  104  A    between atoms: _256  and  _259
REMARK  105  A    between atoms: _259  and  _260
REMARK  106  A    between atoms: _265  and  _266
REMARK  107  A    between atoms: _268  and  _270
REMARK  108  A    between atoms: _270  and  _271
REMARK  109  A    between atoms: _270  and  _273
REMARK  110  A    between atoms: _275  and  _277
REMARK  111  A    between atoms: _277  and  _278
REMARK  112  A    between atoms: _280  and  _282
REMARK  113  A    between atoms: _282  and  _283
REMARK  114  A    between atoms: _282  and  _285
REMARK  115  A    between atoms: _288  and  _290
REMARK  116  A    between atoms: _290  and  _291
REMARK  117  A    between atoms: _294  and  _296
REMARK  118  A    between atoms: _296  and  _297
REMARK  119  A    between atoms: _299  and  _301
REMARK  120  A    between atoms: _301  and  _302
REMARK  121  A    between atoms: _301  and  _304
REMARK  122  A    between atoms: _304  and  _305
REMARK  123  A    between atoms: _308  and  _310
REMARK  124  A    between atoms: _310  and  _311
REMARK  125  A    between atoms: _310  and  _313
REMARK  126  A    between atoms: _316  and  _318
REMARK  127  A    between atoms: _318  and  _319
REMARK  128  A    between atoms: _321  and  _323
REMARK  129  A    between atoms: _323  and  _324
REMARK  130  A    between atoms: _323  and  _326
REMARK  131  A    between atoms: _326  and  _327
REMARK  132  A    between atoms: _327  and  _328
REMARK  133  A    between atoms: _331  and  _333
REMARK  134  A    between atoms: _333  and  _334
REMARK  135  A    between atoms: _333  and  _336
REMARK  136  A    between atoms: _339  and  _341
REMARK  137  A    between atoms: _341  and  _342
REMARK  138  A    between atoms: _341  and  _344
REMARK  139  A    between atoms: _344  and  _345
REMARK  140  A    between atoms: _348  and  _350
REMARK  141  A    between atoms: _350  and  _351
REMARK  142  A    between atoms: _350  and  _353
REMARK  143  A    between atoms: _353  and  _354
REMARK  144  A    between atoms: _357  and  _359
REMARK  145  A    between atoms: _359  and  _360
REMARK  146  A    between atoms: _359  and  _362
REMARK  147  A    between atoms: _362  and  _363
REMARK  148  A    between atoms: _366  and  _368
REMARK  149  A    between atoms: _368  and  _369
REMARK  150  A    between atoms: _368  and  _371
REMARK  151  A    between atoms: _371  and  _372
REMARK  152  A    between atoms: _377  and  _378
REMARK  153  A    between atoms: _380  and  _382
REMARK  154  A    between atoms: _382  and  _383
REMARK  155  A    between atoms: _382  and  _385
REMARK  156  A    between atoms: _388  and  _390
REMARK  157  A    between atoms: _390  and  _391
REMARK  158  A    between atoms: _394  and  _396
REMARK  159  A    between atoms: _396  and  _397
REMARK  160  A    between atoms: _396  and  _399
REMARK  161  A    between atoms: _399  and  _400
REMARK  162  A    between atoms: _400  and  _401
REMARK  163  A    between atoms: _401  and  _402
REMARK  164  A    between atoms: _411  and  _413
REMARK  165  A    between atoms: _413  and  _414
REMARK  166  A    between atoms: _413  and  _416
REMARK  167  A    between atoms: _416  and  _417
REMARK  168  A    between atoms: _417  and  _418
REMARK  169  A    between atoms: _418  and  _419
REMARK  170  A    between atoms: _428  and  _430
REMARK  171  A    between atoms: _430  and  _431
REMARK  172  A    between atoms: _430  and  _433
REMARK  173  A    between atoms: _433  and  _434
REMARK  174  A    between atoms: _437  and  _439
REMARK  175  A    between atoms: _439  and  _440
REMARK  176  A    between atoms: _442  and  _444
REMARK  177  A    between atoms: _444  and  _445
REMARK  178  A    between atoms: _444  and  _447
REMARK  179  A    between atoms: _447  and  _448
REMARK  180  A    between atoms: _448  and  _449
REMARK  181  A    between atoms: _452  and  _454
REMARK  182  A    between atoms: _454  and  _455
REMARK  183  A    between atoms: _454  and  _457
REMARK  184  A    between atoms: _457  and  _458
REMARK  185  A    between atoms: _460  and  _462
REMARK  186  A    between atoms: _462  and  _463
REMARK  187  A    between atoms: _462  and  _465
REMARK  188  A    between atoms: _465  and  _466
REMARK  189  A    between atoms: _469  and  _471
REMARK  190  A    between atoms: _471  and  _472
REMARK  191  A    between atoms: _471  and  _474
REMARK  192  A    between atoms: _474  and  _475
REMARK  193  A    between atoms: _475  and  _476
REMARK  194  A    between atoms: _481  and  _483
REMARK  195  A    between atoms: _483  and  _484
REMARK  196  A    between atoms: _483  and  _486
REMARK  197  A    between atoms: _486  and  _487
REMARK  198  A    between atoms: _492  and  _494
REMARK  199  A    between atoms: _494  and  _495
REMARK  200  A    between atoms: _494  and  _497
REMARK  201  A    between atoms: _497  and  _498
REMARK  202  A    between atoms: _501  and  _503
REMARK  203  A    between atoms: _503  and  _504
REMARK  204  A    between atoms: _503  and  _506
REMARK  205  A    between atoms: _506  and  _507
REMARK  206  A    between atoms: _507  and  _508
REMARK  207  A    between atoms: _508  and  _509
REMARK  208  A    between atoms: _518  and  _520
REMARK  209  A    between atoms: _520  and  _521
REMARK  210  A    between atoms: _520  and  _523
REMARK  211  A    between atoms: _523  and  _524
REMARK  212  A    between atoms: _527  and  _529
REMARK  213  A    between atoms: _529  and  _530
REMARK  214  A    between atoms: _529  and  _532
REMARK  215  A    between atoms: _532  and  _533
REMARK  216  A    between atoms: _536  and  _538
REMARK  217  A    between atoms: _538  and  _539
REMARK  218  A    between atoms: _538  and  _541
REMARK  219  A    between atoms: _541  and  _542
REMARK  220  A    between atoms: _547  and  _548
REMARK  221  A    between atoms: _550  and  _552
REMARK  222  A    between atoms: _552  and  _553
REMARK  223  A    between atoms: _552  and  _555
REMARK  224  A    between atoms: _558  and  _560
REMARK  225  A    between atoms: _560  and  _561
REMARK  226  A    between atoms: _560  and  _563
REMARK  227  A    between atoms: _563  and  _564
REMARK  228  A    between atoms: _570  and  _572
REMARK  229  A    between atoms: _572  and  _573
REMARK  230  A    between atoms: _572  and  _575
REMARK  231  A    between atoms: _575  and  _576
REMARK  232  A    between atoms: _579  and  _581
REMARK  233  A    between atoms: _581  and  _582
REMARK  234  A    between atoms: _585  and  _587
REMARK  235  A    between atoms: _587  and  _588
REMARK  236  A    between atoms: _591  and  _593
REMARK  237  A    between atoms: _593  and  _594
REMARK  238  A    between atoms: _593  and  _596
REMARK  239  A    between atoms: _596  and  _597
REMARK  240  A    between atoms: _602  and  _603
REMARK  241  A    between atoms: _605  and  _607
REMARK  242  A    between atoms: _607  and  _608
REMARK  243  A    between atoms: _607  and  _610
REMARK  244  A    between atoms: _610  and  _611
REMARK  245  A    between atoms: _611  and  _612
REMARK  246  A    between atoms: _612  and  _613
REMARK                            x       y       z     vdW  Elec       q    Type
REMARK                         _______ _______ _______ _____ _____    ______ ____
ROOT
ATOM      1  C   THR A   1     -10.645 -34.661  15.617  0.00  0.00    +0.241 C 
ATOM      2  O   THR A   1     -11.374 -33.923  16.282  0.00  0.00    -0.274 OA
ATOM      3  N   VAL A   2     -10.873 -34.911  14.331  0.00  0.00    -0.298 N 
ATOM      4  H   VAL A   2     -10.214 -35.518  13.803  0.00  0.00    +0.150 HD
ENDROOT
BRANCH   1   5
ATOM      5  CA  THR A   1      -9.441 -35.368  16.258  0.00  0.00    +0.172 C 
BRANCH   5   6
ATOM      6  N   THR A   1      -9.363 -36.756  15.812  0.00  0.00    -0.236 NA
ATOM      7  H   THR A   1      -8.564 -37.057  15.217  0.00  0.00    +0.142 HD
ENDBRANCH   5   6
BRANCH   5   8
ATOM      8  CB  THR A   1      -8.110 -34.620  15.977  0.00  0.00    +0.135 C 
ATOM      9  CG2 THR A   1      -8.173 -33.183  16.457  0.00  0.00    +0.034 C 
BRANCH   8  10
ATOM     10  OG1 THR A   1      -7.042 -35.290  16.666  0.00  0.00    -0.383 OA
ATOM     11  HG1 THR A   1      -7.227 -35.290  17.639  0.00  0.00    +0.210 HD
ENDBRANCH   8  10
ENDBRANCH   5   8
ENDBRANCH   1   5
BRANCH   3  12
ATOM     12  CA  VAL A   2     -12.033 -34.348  13.649  0.00  0.00    +0.137 C 
BRANCH  12  13
ATOM     13  CB  VAL A   2     -11.951 -34.543  12.106  0.00  0.00    +0.026 C 
ATOM     14  CG2 VAL A   2     -10.820 -33.686  11.518  0.00  0.00    +0.002 C 
ATOM     15  CG1 VAL A   2     -13.271 -34.199  11.455  0.00  0.00    +0.002 C 
ENDBRANCH  12  13
BRANCH  12  16
ATOM     16  C   VAL A   2     -13.364 -34.874  14.218  0.00  0.00    +0.227 C 
ATOM     17  O   VAL A   2     -14.294 -34.095  14.412  0.00  0.00    -0.286 OA
ENDBRANCH  12  16
ENDBRANCH   3  12
TORSDOF 7
REMARK  Name = ../refined-set-2016/3tfp/3tfp_pocket.pdb
REMARK  246 active torsions:
REMARK  status: ('A' for Active; 'I' for Inactive)
REMARK    1  A    between atoms: _1  and  _3
REMARK    2  A    between atoms: _3  and  _4
REMARK    3  A    between atoms: _3  and  _6
REMARK    4  A    between atoms: _6  and  _7
REMARK    5  A    between atoms: _10  and  _12
REMARK    6  A    between atoms: _12  and  _13
REMARK    7  A    between atoms: _12  and  _15
REMARK    8  A    between atoms: _15  and  _16
REMARK    9  A    between atoms: _16  and  _17
REMARK   10  A    between atoms: _19  and  _21
REMARK   11  A    between atoms: _21  and  _22
REMARK   12  A    between atoms: _21  and  _24
REMARK   13  A    between atoms: _24  and  _25
REMARK   14  A    between atoms: _30  and  _32
REMARK   15  A    between atoms: _32  and  _33
REMARK   16  A    between atoms: _32  and  _35
REMARK   17  A    between atoms: _35  and  _36
REMARK   18  A    between atoms: _38  and  _40
REMARK   19  A    between atoms: _40  and  _41
REMARK   20  A    between atoms: _40  and  _43
REMARK   21  A    between atoms: _43  and  _44
REMARK   22  A    between atoms: _50  and  _52
REMARK   23  A    between atoms: _52  and  _53
REMARK   24  A    between atoms: _52  and  _55
REMARK   25  A    between atoms: _55  and  _56
REMARK   26  A    between atoms: _58  and  _60
REMARK   27  A    between atoms: _60  and  _61
REMARK   28  A    between atoms: _60  and  _63
REMARK   29  A    between atoms: _63  and  _64
REMARK   30  A    between atoms: _70  and  _72
REMARK   31  A    between atoms: _72  and  _73
REMARK   32  A    between atoms: _76  and  _78
REMARK   33  A    between atoms: _78  and  _79
REMARK   34  A    between atoms: _78  and  _81
REMARK   35  A    between atoms: _84  and  _86
REMARK   36  A    between atoms: _86  and  _87
REMARK   37  A    between atoms: _86  and  _89
REMARK   38  A    between atoms: _89  and  _90
REMARK   39  A    between atoms: _100  and  _102
REMARK   40  A    between atoms: _102  and  _103
REMARK   41  A    between atoms: _106  and  _108
REMARK   42  A    between atoms: _108  and  _109
REMARK   43  A    between atoms: _108  and  _111
REMARK   44  A    between atoms: _111  and  _112
REMARK   45  A    between atoms: _115  and  _117
REMARK   46  A    between atoms: _117  and  _118
REMARK   47  A    between atoms: _117  and  _120
REMARK   48  A    between atoms: _120  and  _121
REMARK   49  A    between atoms: _126  and  _127
REMARK   50  A    between atoms: _129  and  _131
REMARK   51  A    between atoms: _131  and  _132
REMARK   52  A    between atoms: _135  and  _137
REMARK   53  A    between atoms: _137  and  _138
REMARK   54  A    between atoms: _137  and  _140
REMARK   55  A    between atoms: _143  and  _145
REMARK   56  A    between atoms: _145  and  _146
REMARK   57  A    between atoms: _145  and  _148
REMARK   58  A    between atoms: _150  and  _152
REMARK   59  A    between atoms: _152  and  _153
REMARK   60  A    between atoms: _152  and  _155
REMARK   61  A    between atoms: _155  and  _156
REMARK   62  A    between atoms: _156  and  _157
REMARK   63  A    between atoms: _157  and  _158
REMARK   64  A    between atoms: _167  and  _169
REMARK   65  A    between atoms: _169  and  _170
REMARK   66  A    between atoms: _169  and  _172
REMARK   67  A    between atoms: _172  and  _173
REMARK   68  A    between atoms: _173  and  _174
REMARK   69  A    between atoms: _174  and  _175
REMARK   70  A    between atoms: _175  and  _176
REMARK   71  A    between atoms: _180  and  _182
REMARK   72  A    between atoms: _182  and  _183
REMARK   73  A    between atoms: _182  and  _185
REMARK   74  A    between atoms: _185  and  _186
REMARK   75  A    between atoms: _189  and  _191
REMARK   76  A    between atoms: _191  and  _192
REMARK   77  A    between atoms: _191  and  _194
REMARK   78  A    between atoms: _194  and  _195
REMARK   79  A    between atoms: _198  and  _200
REMARK   80  A    between atoms: _200  and  _201
REMARK   81  A    between atoms: _200  and  _203
REMARK   82  A    between atoms: _203  and  _204
REMARK   83  A    between atoms: _207  and  _209
REMARK   84  A    between atoms: _209  and  _210
REMARK   85  A    between atoms: _209  and  _212
REMARK   86  A    between atoms: _212  and  _213
REMARK   87  A    between atoms: _219  and  _221
REMARK   88  A    between atoms: _221  and  _222
REMARK   89  A    between atoms: _221  and  _224
REMARK   90  A    between atoms: _224  and  _225
REMARK   91  A    between atoms: _228  and  _230
REMARK   92  A    between atoms: _230  and  _231
REMARK   93  A    between atoms: _230  and  _233
REMARK   94  A    between atoms: _233  and  _234
REMARK   95  A    between atoms: _237  and  _239
REMARK   96  A    between atoms: _239  and  _240
REMARK   97  A    between atoms: _239  and  _242
REMARK   98  A    between atoms: _242  and  _243
REMARK   99  A    between atoms: _246  and  _248
REMARK  100  A    between atoms: _248  and  _249
REMARK  101  A    between atoms: _248  and  _251
REMARK  102  A    between atoms: _254  and  _256
REMARK  103  A    between atoms: _256  and  _257
REMARK  104  A    between atoms: _256  and  _259
REMARK  105  A    between atoms: _259  and  _260
REMARK  106  A    between atoms: _265  and  _266
REMARK  107  A    between atoms: _268  and  _270
REMARK  108  A    between atoms: _270  and  _271
REMARK  109  A    between atoms: _270  and  _273
REMARK  110  A    between atoms: _275  and  _277
REMARK  111  A    between atoms: _277  and  _278
REMARK  112  A    between atoms: _280  and  _282
REMARK  113  A    between atoms: _282  and  _283
REMARK  114  A    between atoms: _282  and  _285
REMARK  115  A    between atoms: _288  and  _290
REMARK  116  A    between atoms: _290  and  _291
REMARK  117  A    between atoms: _294  and  _296
REMARK  118  A    between atoms: _296  and  _297
REMARK  119  A    between atoms: _299  and  _301
REMARK  120  A    between atoms: _301  and  _302
REMARK  121  A    between atoms: _301  and  _304
REMARK  122  A    between atoms: _304  and  _305
REMARK  123  A    between atoms: _308  and  _310
REMARK  124  A    between atoms: _310  and  _311
REMARK  125  A    between atoms: _310  and  _313
REMARK  126  A    between atoms: _316  and  _318
REMARK  127  A    between atoms: _318  and  _319
REMARK  128  A    between atoms: _321  and  _323
REMARK  129  A    between atoms: _323  and  _324
REMARK  130  A    between atoms: _323  and  _326
REMARK  131  A    between atoms: _326  and  _327
REMARK  132  A    between atoms: _327  and  _328
REMARK  133  A    between atoms: _331  and  _333
REMARK  134  A    between atoms: _333  and  _334
REMARK  135  A    between atoms: _333  and  _336
REMARK  136  A    between atoms: _339  and  _341
REMARK  137  A    between atoms: _341  and  _342
REMARK  138  A    between atoms: _341  and  _344
REMARK  139  A    between atoms: _344  and  _345
REMARK  140  A    between atoms: _348  and  _350
REMARK  141  A    between atoms: _350  and  _351
REMARK  142  A    between atoms: _350  and  _353
REMARK  143  A    between atoms: _353  and  _354
REMARK  144  A    between atoms: _357  and  _359
REMARK  145  A    between atoms: _359  and  _360
REMARK  146  A    between atoms: _359  and  _362
REMARK  147  A    between atoms: _362  and  _363
REMARK  148  A    between atoms: _366  and  _368
REMARK  149  A    between atoms: _368  and  _369
REMARK  150  A    between atoms: _368  and  _371
REMARK  151  A    between atoms: _371  and  _372
REMARK  152  A    between atoms: _377  and  _378
REMARK  153  A    between atoms: _380  and  _382
REMARK  154  A    between atoms: _382  and  _383
REMARK  155  A    between atoms: _382  and  _385
REMARK  156  A    between atoms: _388  and  _390
REMARK  157  A    between atoms: _390  and  _391
REMARK  158  A    between atoms: _394  and  _396
REMARK  159  A    between atoms: _396  and  _397
REMARK  160  A    between atoms: _396  and  _399
REMARK  161  A    between atoms: _399  and  _400
REMARK  162  A    between atoms: _400  and  _401
REMARK  163  A    between atoms: _401  and  _402
REMARK  164  A    between atoms: _411  and  _413
REMARK  165  A    between atoms: _413  and  _414
REMARK  166  A    between atoms: _413  and  _416
REMARK  167  A    between atoms: _416  and  _417
REMARK  168  A    between atoms: _417  and  _418
REMARK  169  A    between atoms: _418  and  _419
REMARK  170  A    between atoms: _428  and  _430
REMARK  171  A    between atoms: _430  and  _431
REMARK  172  A    between atoms: _430  and  _433
REMARK  173  A    between atoms: _433  and  _434
REMARK  174  A    between atoms: _437  and  _439
REMARK  175  A    between atoms: _439  and  _440
REMARK  176  A    between atoms: _442  and  _444
REMARK  177  A    between atoms: _444  and  _445
REMARK  178  A    between atoms: _444  and  _447
REMARK  179  A    between atoms: _447  and  _448
REMARK  180  A    between atoms: _448  and  _449
REMARK  181  A    between atoms: _452  and  _454
REMARK  182  A    between atoms: _454  and  _455
REMARK  183  A    between atoms: _454  and  _457
REMARK  184  A    between atoms: _457  and  _458
REMARK  185  A    between atoms: _460  and  _462
REMARK  186  A    between atoms: _462  and  _463
REMARK  187  A    between atoms: _462  and  _465
REMARK  188  A    between atoms: _465  and  _466
REMARK  189  A    between atoms: _469  and  _471
REMARK  190  A    between atoms: _471  and  _472
REMARK  191  A    between atoms: _471  and  _474
REMARK  192  A    between atoms: _474  and  _475
REMARK  193  A    between atoms: _475  and  _476
REMARK  194  A    between atoms: _481  and  _483
REMARK  195  A    between atoms: _483  and  _484
REMARK  196  A    between atoms: _483  and  _486
REMARK  197  A    between atoms: _486  and  _487
REMARK  198  A    between atoms: _492  and  _494
REMARK  199  A    between atoms: _494  and  _495
REMARK  200  A    between atoms: _494  and  _497
REMARK  201  A    between atoms: _497  and  _498
REMARK  202  A    between atoms: _501  and  _503
REMARK  203  A    between atoms: _503  and  _504
REMARK  204  A    between atoms: _503  and  _506
REMARK  205  A    between atoms: _506  and  _507
REMARK  206  A    between atoms: _507  and  _508
REMARK  207  A    between atoms: _508  and  _509
REMARK  208  A    between atoms: _518  and  _520
REMARK  209  A    between atoms: _520  and  _521
REMARK  210  A    between atoms: _520  and  _523
REMARK  211  A    between atoms: _523  and  _524
REMARK  212  A    between atoms: _527  and  _529
REMARK  213  A    between atoms: _529  and  _530
REMARK  214  A    between atoms: _529  and  _532
REMARK  215  A    between atoms: _532  and  _533
REMARK  216  A    between atoms: _536  and  _538
REMARK  217  A    between atoms: _538  and  _539
REMARK  218  A    between atoms: _538  and  _541
REMARK  219  A    between atoms: _541  and  _542
REMARK  220  A    between atoms: _547  and  _548
REMARK  221  A    between atoms: _550  and  _552
REMARK  222  A    between atoms: _552  and  _553
REMARK  223  A    between atoms: _552  and  _555
REMARK  224  A    between atoms: _558  and  _560
REMARK  225  A    between atoms: _560  and  _561
REMARK  226  A    between atoms: _560  and  _563
REMARK  227  A    between atoms: _563  and  _564
REMARK  228  A    between atoms: _570  and  _572
REMARK  229  A    between atoms: _572  and  _573
REMARK  230  A    between atoms: _572  and  _575
REMARK  231  A    between atoms: _575  and  _576
REMARK  232  A    between atoms: _579  and  _581
REMARK  233  A    between atoms: _581  and  _582
REMARK  234  A    between atoms: _585  and  _587
REMARK  235  A    between atoms: _587  and  _588
REMARK  236  A    between atoms: _591  and  _593
REMARK  237  A    between atoms: _593  and  _594
REMARK  238  A    between atoms: _593  and  _596
REMARK  239  A    between atoms: _596  and  _597
REMARK  240  A    between atoms: _602  and  _603
REMARK  241  A    between atoms: _605  and  _607
REMARK  242  A    between atoms: _607  and  _608
REMARK  243  A    between atoms: _607  and  _610
REMARK  244  A    between atoms: _610  and  _611
REMARK  245  A    between atoms: _611  and  _612
REMARK  246  A    between atoms: _612  and  _613
REMARK                            x       y       z     vdW  Elec       q    Type
REMARK                         _______ _______ _______ _____ _____    ______ ____
ROOT
ATOM      1  CA  TYR A   1      -5.260 -30.485  19.629  0.00  0.00    +0.149 C 
ENDROOT
BRANCH   1   2
ATOM      2  C   TYR A   1      -4.368 -30.149  18.436  0.00  0.00    +0.239 C 
ATOM      3  N   CYS A   2      -3.340 -29.335  18.668  0.00  0.00    -0.297 N 
ATOM      4  H   CYS A   2      -3.189 -28.966  19.629  0.00  0.00    +0.150 HD
ATOM      5  O   TYR A   1      -4.585 -30.646  17.336  0.00  0.00    -0.274 OA
BRANCH   3   6
ATOM      6  CA  CYS A   2      -2.419 -28.949  17.599  0.00  0.00    +0.149 C 
BRANCH   6   7
ATOM      7  CB  CYS A   2      -1.405 -27.915  18.100  0.00  0.00    +0.096 C 
ATOM      8  SG  CYS A   2      -2.092 -26.278  18.389  0.00  0.00    -0.080 S 
ENDBRANCH   6   7
BRANCH   6   9
ATOM      9  C   CYS A   2      -1.692 -30.166  17.030  0.00  0.00    +0.228 C 
ATOM     10  O   CYS A   2      -1.506 -30.275  15.814  0.00  0.00    -0.286 OA
ENDBRANCH   6   9
ENDBRANCH   3   6
ENDBRANCH   1   2
BRANCH   1  11
ATOM     11  N   TYR A   1      -4.435 -30.729  20.802  0.00  0.00    -0.238 NA
ATOM     12  H   TYR A   1      -4.483 -30.075  21.609  0.00  0.00    +0.142 HD
ENDBRANCH   1  11
BRANCH   1  13
ATOM     13  CB  TYR A   1      -6.279 -29.367  19.898  0.00  0.00    +0.053 C 
BRANCH  13  14
ATOM     14  CG  TYR A   1      -6.929 -28.829  18.646  0.00  0.00    -0.020 A 
ATOM     15  CD2 TYR A   1      -8.002 -29.486  18.053  0.00  0.00    -0.001 A 
ATOM     16  CE2 TYR A   1      -8.595 -28.989  16.893  0.00  0.00    +0.036 A 
ATOM     17  CZ  TYR A   1      -8.101 -27.835  16.329  0.00  0.00    +0.134 A 
ATOM     18  CE1 TYR A   1      -7.038 -27.174  16.905  0.00  0.00    +0.036 A 
ATOM     19  CD1 TYR A   1      -6.461 -27.671  18.049  0.00  0.00    -0.001 A 
BRANCH  17  20
ATOM     20  OH  TYR A   1      -8.669 -27.322  15.188  0.00  0.00    -0.506 OA
ATOM     21  HH  TYR A   1      -9.014 -26.412  15.372  0.00  0.00    +0.292 HD
ENDBRANCH  17  20
ENDBRANCH  13  14
ENDBRANCH   1  13
TORSDOF 8
REMARK  Name = ../refined-set-2016/3tfp/3tfp_pocket.pdb
REMARK  246 active torsions:
REMARK  status: ('A' for Active; 'I' for Inactive)
REMARK    1  A    between atoms: _1  and  _3
REMARK    2  A    between atoms: _3  and  _4
REMARK    3  A    between atoms: _3  and  _6
REMARK    4  A    between atoms: _6  and  _7
REMARK    5  A    between atoms: _10  and  _12
REMARK    6  A    between atoms: _12  and  _13
REMARK    7  A    between atoms: _12  and  _15
REMARK    8  A    between atoms: _15  and  _16
REMARK    9  A    between atoms: _16  and  _17
REMARK   10  A    between atoms: _19  and  _21
REMARK   11  A    between atoms: _21  and  _22
REMARK   12  A    between atoms: _21  and  _24
REMARK   13  A    between atoms: _24  and  _25
REMARK   14  A    between atoms: _30  and  _32
REMARK   15  A    between atoms: _32  and  _33
REMARK   16  A    between atoms: _32  and  _35
REMARK   17  A    between atoms: _35  and  _36
REMARK   18  A    between atoms: _38  and  _40
REMARK   19  A    between atoms: _40  and  _41
REMARK   20  A    between atoms: _40  and  _43
REMARK   21  A    between atoms: _43  and  _44
REMARK   22  A    between atoms: _50  and  _52
REMARK   23  A    between atoms: _52  and  _53
REMARK   24  A    between atoms: _52  and  _55
REMARK   25  A    between atoms: _55  and  _56
REMARK   26  A    between atoms: _58  and  _60
REMARK   27  A    between atoms: _60  and  _61
REMARK   28  A    between atoms: _60  and  _63
REMARK   29  A    between atoms: _63  and  _64
REMARK   30  A    between atoms: _70  and  _72
REMARK   31  A    between atoms: _72  and  _73
REMARK   32  A    between atoms: _76  and  _78
REMARK   33  A    between atoms: _78  and  _79
REMARK   34  A    between atoms: _78  and  _81
REMARK   35  A    between atoms: _84  and  _86
REMARK   36  A    between atoms: _86  and  _87
REMARK   37  A    between atoms: _86  and  _89
REMARK   38  A    between atoms: _89  and  _90
REMARK   39  A    between atoms: _100  and  _102
REMARK   40  A    between atoms: _102  and  _103
REMARK   41  A    between atoms: _106  and  _108
REMARK   42  A    between atoms: _108  and  _109
REMARK   43  A    between atoms: _108  and  _111
REMARK   44  A    between atoms: _111  and  _112
REMARK   45  A    between atoms: _115  and  _117
REMARK   46  A    between atoms: _117  and  _118
REMARK   47  A    between atoms: _117  and  _120
REMARK   48  A    between atoms: _120  and  _121
REMARK   49  A    between atoms: _126  and  _127
REMARK   50  A    between atoms: _129  and  _131
REMARK   51  A    between atoms: _131  and  _132
REMARK   52  A    between atoms: _135  and  _137
REMARK   53  A    between atoms: _137  and  _138
REMARK   54  A    between atoms: _137  and  _140
REMARK   55  A    between atoms: _143  and  _145
REMARK   56  A    between atoms: _145  and  _146
REMARK   57  A    between atoms: _145  and  _148
REMARK   58  A    between atoms: _150  and  _152
REMARK   59  A    between atoms: _152  and  _153
REMARK   60  A    between atoms: _152  and  _155
REMARK   61  A    between atoms: _155  and  _156
REMARK   62  A    between atoms: _156  and  _157
REMARK   63  A    between atoms: _157  and  _158
REMARK   64  A    between atoms: _167  and  _169
REMARK   65  A    between atoms: _169  and  _170
REMARK   66  A    between atoms: _169  and  _172
REMARK   67  A    between atoms: _172  and  _173
REMARK   68  A    between atoms: _173  and  _174
REMARK   69  A    between atoms: _174  and  _175
REMARK   70  A    between atoms: _175  and  _176
REMARK   71  A    between atoms: _180  and  _182
REMARK   72  A    between atoms: _182  and  _183
REMARK   73  A    between atoms: _182  and  _185
REMARK   74  A    between atoms: _185  and  _186
REMARK   75  A    between atoms: _189  and  _191
REMARK   76  A    between atoms: _191  and  _192
REMARK   77  A    between atoms: _191  and  _194
REMARK   78  A    between atoms: _194  and  _195
REMARK   79  A    between atoms: _198  and  _200
REMARK   80  A    between atoms: _200  and  _201
REMARK   81  A    between atoms: _200  and  _203
REMARK   82  A    between atoms: _203  and  _204
REMARK   83  A    between atoms: _207  and  _209
REMARK   84  A    between atoms: _209  and  _210
REMARK   85  A    between atoms: _209  and  _212
REMARK   86  A    between atoms: _212  and  _213
REMARK   87  A    between atoms: _219  and  _221
REMARK   88  A    between atoms: _221  and  _222
REMARK   89  A    between atoms: _221  and  _224
REMARK   90  A    between atoms: _224  and  _225
REMARK   91  A    between atoms: _228  and  _230
REMARK   92  A    between atoms: _230  and  _231
REMARK   93  A    between atoms: _230  and  _233
REMARK   94  A    between atoms: _233  and  _234
REMARK   95  A    between atoms: _237  and  _239
REMARK   96  A    between atoms: _239  and  _240
REMARK   97  A    between atoms: _239  and  _242
REMARK   98  A    between atoms: _242  and  _243
REMARK   99  A    between atoms: _246  and  _248
REMARK  100  A    between atoms: _248  and  _249
REMARK  101  A    between atoms: _248  and  _251
REMARK  102  A    between atoms: _254  and  _256
REMARK  103  A    between atoms: _256  and  _257
REMARK  104  A    between atoms: _256  and  _259
REMARK  105  A    between atoms: _259  and  _260
REMARK  106  A    between atoms: _265  and  _266
REMARK  107  A    between atoms: _268  and  _270
REMARK  108  A    between atoms: _270  and  _271
REMARK  109  A    between atoms: _270  and  _273
REMARK  110  A    between atoms: _275  and  _277
REMARK  111  A    between atoms: _277  and  _278
REMARK  112  A    between atoms: _280  and  _282
REMARK  113  A    between atoms: _282  and  _283
REMARK  114  A    between atoms: _282  and  _285
REMARK  115  A    between atoms: _288  and  _290
REMARK  116  A    between atoms: _290  and  _291
REMARK  117  A    between atoms: _294  and  _296
REMARK  118  A    between atoms: _296  and  _297
REMARK  119  A    between atoms: _299  and  _301
REMARK  120  A    between atoms: _301  and  _302
REMARK  121  A    between atoms: _301  and  _304
REMARK  122  A    between atoms: _304  and  _305
REMARK  123  A    between atoms: _308  and  _310
REMARK  124  A    between atoms: _310  and  _311
REMARK  125  A    between atoms: _310  and  _313
REMARK  126  A    between atoms: _316  and  _318
REMARK  127  A    between atoms: _318  and  _319
REMARK  128  A    between atoms: _321  and  _323
REMARK  129  A    between atoms: _323  and  _324
REMARK  130  A    between atoms: _323  and  _326
REMARK  131  A    between atoms: _326  and  _327
REMARK  132  A    between atoms: _327  and  _328
REMARK  133  A    between atoms: _331  and  _333
REMARK  134  A    between atoms: _333  and  _334
REMARK  135  A    between atoms: _333  and  _336
REMARK  136  A    between atoms: _339  and  _341
REMARK  137  A    between atoms: _341  and  _342
REMARK  138  A    between atoms: _341  and  _344
REMARK  139  A    between atoms: _344  and  _345
REMARK  140  A    between atoms: _348  and  _350
REMARK  141  A    between atoms: _350  and  _351
REMARK  142  A    between atoms: _350  and  _353
REMARK  143  A    between atoms: _353  and  _354
REMARK  144  A    between atoms: _357  and  _359
REMARK  145  A    between atoms: _359  and  _360
REMARK  146  A    between atoms: _359  and  _362
REMARK  147  A    between atoms: _362  and  _363
REMARK  148  A    between atoms: _366  and  _368
REMARK  149  A    between atoms: _368  and  _369
REMARK  150  A    between atoms: _368  and  _371
REMARK  151  A    between atoms: _371  and  _372
REMARK  152  A    between atoms: _377  and  _378
REMARK  153  A    between atoms: _380  and  _382
REMARK  154  A    between atoms: _382  and  _383
REMARK  155  A    between atoms: _382  and  _385
REMARK  156  A    between atoms: _388  and  _390
REMARK  157  A    between atoms: _390  and  _391
REMARK  158  A    between atoms: _394  and  _396
REMARK  159  A    between atoms: _396  and  _397
REMARK  160  A    between atoms: _396  and  _399
REMARK  161  A    between atoms: _399  and  _400
REMARK  162  A    between atoms: _400  and  _401
REMARK  163  A    between atoms: _401  and  _402
REMARK  164  A    between atoms: _411  and  _413
REMARK  165  A    between atoms: _413  and  _414
REMARK  166  A    between atoms: _413  and  _416
REMARK  167  A    between atoms: _416  and  _417
REMARK  168  A    between atoms: _417  and  _418
REMARK  169  A    between atoms: _418  and  _419
REMARK  170  A    between atoms: _428  and  _430
REMARK  171  A    between atoms: _430  and  _431
REMARK  172  A    between atoms: _430  and  _433
REMARK  173  A    between atoms: _433  and  _434
REMARK  174  A    between atoms: _437  and  _439
REMARK  175  A    between atoms: _439  and  _440
REMARK  176  A    between atoms: _442  and  _444
REMARK  177  A    between atoms: _444  and  _445
REMARK  178  A    between atoms: _444  and  _447
REMARK  179  A    between atoms: _447  and  _448
REMARK  180  A    between atoms: _448  and  _449
REMARK  181  A    between atoms: _452  and  _454
REMARK  182  A    between atoms: _454  and  _455
REMARK  183  A    between atoms: _454  and  _457
REMARK  184  A    between atoms: _457  and  _458
REMARK  185  A    between atoms: _460  and  _462
REMARK  186  A    between atoms: _462  and  _463
REMARK  187  A    between atoms: _462  and  _465
REMARK  188  A    between atoms: _465  and  _466
REMARK  189  A    between atoms: _469  and  _471
REMARK  190  A    between atoms: _471  and  _472
REMARK  191  A    between atoms: _471  and  _474
REMARK  192  A    between atoms: _474  and  _475
REMARK  193  A    between atoms: _475  and  _476
REMARK  194  A    between atoms: _481  and  _483
REMARK  195  A    between atoms: _483  and  _484
REMARK  196  A    between atoms: _483  and  _486
REMARK  197  A    between atoms: _486  and  _487
REMARK  198  A    between atoms: _492  and  _494
REMARK  199  A    between atoms: _494  and  _495
REMARK  200  A    between atoms: _494  and  _497
REMARK  201  A    between atoms: _497  and  _498
REMARK  202  A    between atoms: _501  and  _503
REMARK  203  A    between atoms: _503  and  _504
REMARK  204  A    between atoms: _503  and  _506
REMARK  205  A    between atoms: _506  and  _507
REMARK  206  A    between atoms: _507  and  _508
REMARK  207  A    between atoms: _508  and  _509
REMARK  208  A    between atoms: _518  and  _520
REMARK  209  A    between atoms: _520  and  _521
REMARK  210  A    between atoms: _520  and  _523
REMARK  211  A    between atoms: _523  and  _524
REMARK  212  A    between atoms: _527  and  _529
REMARK  213  A    between atoms: _529  and  _530
REMARK  214  A    between atoms: _529  and  _532
REMARK  215  A    between atoms: _532  and  _533
REMARK  216  A    between atoms: _536  and  _538
REMARK  217  A    between atoms: _538  and  _539
REMARK  218  A    between atoms: _538  and  _541
REMARK  219  A    between atoms: _541  and  _542
REMARK  220  A    between atoms: _547  and  _548
REMARK  221  A    between atoms: _550  and  _552
REMARK  222  A    between atoms: _552  and  _553
REMARK  223  A    between atoms: _552  and  _555
REMARK  224  A    between atoms: _558  and  _560
REMARK  225  A    between atoms: _560  and  _561
REMARK  226  A    between atoms: _560  and  _563
REMARK  227  A    between atoms: _563  and  _564
REMARK  228  A    between atoms: _570  and  _572
REMARK  229  A    between atoms: _572  and  _573
REMARK  230  A    between atoms: _572  and  _575
REMARK  231  A    between atoms: _575  and  _576
REMARK  232  A    between atoms: _579  and  _581
REMARK  233  A    between atoms: _581  and  _582
REMARK  234  A    between atoms: _585  and  _587
REMARK  235  A    between atoms: _587  and  _588
REMARK  236  A    between atoms: _591  and  _593
REMARK  237  A    between atoms: _593  and  _594
REMARK  238  A    between atoms: _593  and  _596
REMARK  239  A    between atoms: _596  and  _597
REMARK  240  A    between atoms: _602  and  _603
REMARK  241  A    between atoms: _605  and  _607
REMARK  242  A    between atoms: _607  and  _608
REMARK  243  A    between atoms: _607  and  _610
REMARK  244  A    between atoms: _610  and  _611
REMARK  245  A    between atoms: _611  and  _612
REMARK  246  A    between atoms: _612  and  _613
REMARK                            x       y       z     vdW  Elec       q    Type
REMARK                         _______ _______ _______ _____ _____    ______ ____
ROOT
ATOM      1  C   VAL A   6       1.708 -34.061   8.847  0.00  0.00    +0.241 C 
ATOM      2  N   GLY A   7       2.450 -33.448   9.765  0.00  0.00    -0.295 N 
ATOM      3  H   GLY A   7       1.985 -32.961  10.558  0.00  0.00    +0.150 HD
ATOM      4  O   VAL A   6       2.193 -34.590   7.848  0.00  0.00    -0.273 OA
ENDROOT
BRANCH   1   5
ATOM      5  CA  VAL A   6       0.199 -34.100   9.094  0.00  0.00    +0.149 C 
BRANCH   5   7
ATOM      6  C   THR A   5       0.248 -35.530  11.077  0.00  0.00    +0.243 C 
ATOM      7  N   VAL A   6      -0.110 -34.389  10.495  0.00  0.00    -0.297 N 
ATOM      8  H   VAL A   6      -0.626 -33.679  11.053  0.00  0.00    +0.150 HD
ATOM      9  O   THR A   5       0.839 -36.429  10.480  0.00  0.00    -0.273 OA
BRANCH   6  10
ATOM     10  CA  THR A   5      -0.110 -35.679  12.558  0.00  0.00    +0.176 C 
BRANCH  10  12
ATOM     11  C   GLY A   4       1.384 -33.915  13.331  0.00  0.00    +0.243 C 
ATOM     12  N   THR A   5       0.173 -34.455  13.311  0.00  0.00    -0.295 N 
ATOM     13  H   THR A   5      -0.595 -33.998  13.843  0.00  0.00    +0.150 HD
ATOM     14  O   GLY A   4       2.361 -34.436  12.784  0.00  0.00    -0.273 OA
BRANCH  11  15
ATOM     15  CA  GLY A   4       1.502 -32.596  14.077  0.00  0.00    +0.176 C 
BRANCH  15  17
ATOM     16  C   ALA A   3       0.059 -31.382  12.564  0.00  0.00    +0.241 C 
ATOM     17  N   GLY A   4       0.319 -31.799  13.802  0.00  0.00    -0.295 N 
ATOM     18  H   GLY A   4      -0.329 -31.552  14.577  0.00  0.00    +0.150 HD
ATOM     19  O   ALA A   3       0.837 -31.553  11.629  0.00  0.00    -0.273 OA
BRANCH  16  20
ATOM     20  CA  ALA A   3      -1.256 -30.644  12.341  0.00  0.00    +0.149 C 
ATOM     21  CB  ALA A   3      -1.088 -29.146  12.599  0.00  0.00    +0.031 C 
BRANCH  20  23
ATOM     22  C   VAL A   2      -3.565 -31.299  12.524  0.00  0.00    +0.241 C 
ATOM     23  N   ALA A   3      -2.381 -31.168  13.113  0.00  0.00    -0.297 N 
ATOM     24  H   ALA A   3      -2.257 -31.435  14.110  0.00  0.00    +0.150 HD
ATOM     25  O   VAL A   2      -3.716 -31.151  11.308  0.00  0.00    -0.273 OA
BRANCH  22  26
ATOM     26  CA  VAL A   2      -4.760 -31.637  13.413  0.00  0.00    +0.148 C 
BRANCH  26  28
ATOM     27  C   GLY A   1      -4.313 -33.461  14.937  0.00  0.00    +0.240 C 
ATOM     28  N   VAL A   2      -4.386 -32.147  14.734  0.00  0.00    -0.297 N 
ATOM     29  H   VAL A   2      -4.178 -31.486  15.510  0.00  0.00    +0.150 HD
ATOM     30  O   GLY A   1      -4.483 -34.281  14.030  0.00  0.00    -0.274 OA
BRANCH  27  31
ATOM     31  CA  GLY A   1      -4.008 -33.943  16.345  0.00  0.00    +0.169 C 
BRANCH  31  32
ATOM     32  N   GLY A   1      -2.965 -33.218  17.051  0.00  0.00    -0.236 NA
ATOM     33  H   GLY A   1      -3.170 -32.824  17.991  0.00  0.00    +0.142 HD
ENDBRANCH  31  32
ENDBRANCH  27  31
ENDBRANCH  26  28
BRANCH  26  34
ATOM     34  CB  VAL A   2      -5.630 -30.377  13.489  0.00  0.00    +0.027 C 
ATOM     35  CG2 VAL A   2      -6.889 -30.638  14.314  0.00  0.00    +0.002 C 
ATOM     36  CG1 VAL A   2      -4.822 -29.222  14.056  0.00  0.00    +0.002 C 
ENDBRANCH  26  34
ENDBRANCH  22  26
ENDBRANCH  20  23
ENDBRANCH  16  20
ENDBRANCH  15  17
ENDBRANCH  11  15
ENDBRANCH  10  12
BRANCH  10  37
ATOM     37  CB  THR A   5      -1.587 -36.081  12.672  0.00  0.00    +0.137 C 
ATOM     38  CG2 THR A   5      -1.925 -36.456  14.103  0.00  0.00    +0.034 C 
BRANCH  37  39
ATOM     39  OG1 THR A   5      -2.423 -34.989  12.264  0.00  0.00    -0.382 OA
ATOM     40  HG1 THR A   5      -3.373 -35.256  12.340  0.00  0.00    +0.210 HD
ENDBRANCH  37  39
ENDBRANCH  10  37
ENDBRANCH   6  10
ENDBRANCH   5   7
BRANCH   5  41
ATOM     41  CB  VAL A   6      -0.446 -32.768   8.637  0.00  0.00    +0.027 C 
ATOM     42  CG2 VAL A   6      -1.951 -32.838   8.786  0.00  0.00    +0.002 C 
ATOM     43  CG1 VAL A   6      -0.078 -32.463   7.206  0.00  0.00    +0.002 C 
ENDBRANCH   5  41
ENDBRANCH   1   5
BRANCH   2  44
ATOM     44  CA  GLY A   7       3.902 -33.448   9.677  0.00  0.00    +0.176 C 
BRANCH  44  45
ATOM     45  C   GLY A   7       4.473 -34.858   9.688  0.00  0.00    +0.243 C 
ATOM     46  N   GLU A   8       3.926 -35.704  10.558  0.00  0.00    -0.297 N 
ATOM     47  H   GLU A   8       3.188 -35.361  11.205  0.00  0.00    +0.150 HD
ATOM     48  O   GLY A   7       5.394 -35.179   8.928  0.00  0.00    -0.273 OA
BRANCH  46  49
ATOM     49  CA  GLU A   8       4.340 -37.105  10.624  0.00  0.00    +0.149 C 
BRANCH  49  50
ATOM     50  C   GLU A   8       4.132 -37.814   9.289  0.00  0.00    +0.241 C 
ATOM     51  O   GLU A   8       5.021 -38.530   8.825  0.00  0.00    -0.273 OA
ATOM     52  N   VAL A   9       2.963 -37.623   8.677  0.00  0.00    -0.297 N 
ATOM     53  H   VAL A   9       2.248 -37.010   9.118  0.00  0.00    +0.150 HD
BRANCH  52  54
ATOM     54  CA  VAL A   9       2.671 -38.264   7.393  0.00  0.00    +0.149 C 
BRANCH  54  55
ATOM     55  C   VAL A   9       3.633 -37.781   6.315  0.00  0.00    +0.241 C 
ATOM     56  N   LEU A  10       3.970 -36.495   6.346  0.00  0.00    -0.297 N 
ATOM     57  H   LEU A  10       3.585 -35.889   7.098  0.00  0.00    +0.150 HD
ATOM     58  O   VAL A   9       4.076 -38.565   5.485  0.00  0.00    -0.273 OA
BRANCH  56  59
ATOM     59  CA  LEU A  10       4.871 -35.909   5.346  0.00  0.00    +0.149 C 
BRANCH  59  60
ATOM     60  C   LEU A  10       6.336 -36.311   5.510  0.00  0.00    +0.241 C 
ATOM     61  N   THR A  11       6.695 -36.792   6.692  0.00  0.00    -0.296 N 
ATOM     62  H   THR A  11       5.966 -37.001   7.404  0.00  0.00    +0.150 HD
ATOM     63  O   LEU A  10       7.131 -36.181   4.580  0.00  0.00    -0.273 OA
BRANCH  61  64
ATOM     64  CA  THR A  11       8.102 -37.033   7.008  0.00  0.00    +0.164 C 
BRANCH  64  65
ATOM     65  C   THR A  11       8.882 -37.867   5.981  0.00  0.00    +0.229 C 
ATOM     66  O   THR A  11       9.986 -37.483   5.603  0.00  0.00    -0.286 OA
ENDBRANCH  64  65
BRANCH  64  67
ATOM     67  CB  THR A  11       8.279 -37.619   8.420  0.00  0.00    +0.136 C 
ATOM     68  CG2 THR A  11       9.723 -38.032   8.652  0.00  0.00    +0.034 C 
BRANCH  67  69
ATOM     69  OG1 THR A  11       7.918 -36.629   9.388  0.00  0.00    -0.382 OA
ATOM     70  HG1 THR A  11       6.973 -36.366   9.253  0.00  0.00    +0.210 HD
ENDBRANCH  67  69
ENDBRANCH  64  67
ENDBRANCH  61  64
ENDBRANCH  59  60
BRANCH  59  71
ATOM     71  CB  LEU A  10       4.770 -34.383   5.361  0.00  0.00    +0.029 C 
BRANCH  71  72
ATOM     72  CG  LEU A  10       3.466 -33.769   4.840  0.00  0.00    +0.002 C 
ATOM     73  CD2 LEU A  10       3.378 -32.297   5.197  0.00  0.00    +0.000 C 
ATOM     74  CD1 LEU A  10       3.327 -33.956   3.339  0.00  0.00    +0.000 C 
ENDBRANCH  71  72
ENDBRANCH  59  71
ENDBRANCH  56  59
ENDBRANCH  54  55
BRANCH  54  75
ATOM     75  CB  VAL A   9       1.213 -38.031   6.919  0.00  0.00    +0.027 C 
ATOM     76  CG2 VAL A   9       0.224 -38.671   7.887  0.00  0.00    +0.002 C 
ATOM     77  CG1 VAL A   9       1.010 -38.598   5.528  0.00  0.00    +0.002 C 
ENDBRANCH  54  75
ENDBRANCH  52  54
ENDBRANCH  49  50
BRANCH  49  78
ATOM     78  CB  GLU A   8       3.600 -37.849  11.747  0.00  0.00    +0.041 C 
BRANCH  78  79
ATOM     79  CG  GLU A   8       3.983 -37.364  13.148  0.00  0.00    +0.116 C 
BRANCH  79  80
ATOM     80  CD  GLU A   8       3.135 -37.975  14.250  0.00  0.00    +0.365 C 
ATOM     81  OE2 GLU A   8       3.654 -38.097  15.373  0.00  0.00    -0.246 OA
ATOM     82  OE1 GLU A   8       1.959 -38.316  14.002  0.00  0.00    -0.246 OA
ENDBRANCH  79  80
ENDBRANCH  78  79
ENDBRANCH  49  78
ENDBRANCH  46  49
ENDBRANCH  44  45
ENDBRANCH   2  44
TORSDOF 34
REMARK  Name = ../refined-set-2016/3tfp/3tfp_pocket.pdb
REMARK  246 active torsions:
REMARK  status: ('A' for Active; 'I' for Inactive)
REMARK    1  A    between atoms: _1  and  _3
REMARK    2  A    between atoms: _3  and  _4
REMARK    3  A    between atoms: _3  and  _6
REMARK    4  A    between atoms: _6  and  _7
REMARK    5  A    between atoms: _10  and  _12
REMARK    6  A    between atoms: _12  and  _13
REMARK    7  A    between atoms: _12  and  _15
REMARK    8  A    between atoms: _15  and  _16
REMARK    9  A    between atoms: _16  and  _17
REMARK   10  A    between atoms: _19  and  _21
REMARK   11  A    between atoms: _21  and  _22
REMARK   12  A    between atoms: _21  and  _24
REMARK   13  A    between atoms: _24  and  _25
REMARK   14  A    between atoms: _30  and  _32
REMARK   15  A    between atoms: _32  and  _33
REMARK   16  A    between atoms: _32  and  _35
REMARK   17  A    between atoms: _35  and  _36
REMARK   18  A    between atoms: _38  and  _40
REMARK   19  A    between atoms: _40  and  _41
REMARK   20  A    between atoms: _40  and  _43
REMARK   21  A    between atoms: _43  and  _44
REMARK   22  A    between atoms: _50  and  _52
REMARK   23  A    between atoms: _52  and  _53
REMARK   24  A    between atoms: _52  and  _55
REMARK   25  A    between atoms: _55  and  _56
REMARK   26  A    between atoms: _58  and  _60
REMARK   27  A    between atoms: _60  and  _61
REMARK   28  A    between atoms: _60  and  _63
REMARK   29  A    between atoms: _63  and  _64
REMARK   30  A    between atoms: _70  and  _72
REMARK   31  A    between atoms: _72  and  _73
REMARK   32  A    between atoms: _76  and  _78
REMARK   33  A    between atoms: _78  and  _79
REMARK   34  A    between atoms: _78  and  _81
REMARK   35  A    between atoms: _84  and  _86
REMARK   36  A    between atoms: _86  and  _87
REMARK   37  A    between atoms: _86  and  _89
REMARK   38  A    between atoms: _89  and  _90
REMARK   39  A    between atoms: _100  and  _102
REMARK   40  A    between atoms: _102  and  _103
REMARK   41  A    between atoms: _106  and  _108
REMARK   42  A    between atoms: _108  and  _109
REMARK   43  A    between atoms: _108  and  _111
REMARK   44  A    between atoms: _111  and  _112
REMARK   45  A    between atoms: _115  and  _117
REMARK   46  A    between atoms: _117  and  _118
REMARK   47  A    between atoms: _117  and  _120
REMARK   48  A    between atoms: _120  and  _121
REMARK   49  A    between atoms: _126  and  _127
REMARK   50  A    between atoms: _129  and  _131
REMARK   51  A    between atoms: _131  and  _132
REMARK   52  A    between atoms: _135  and  _137
REMARK   53  A    between atoms: _137  and  _138
REMARK   54  A    between atoms: _137  and  _140
REMARK   55  A    between atoms: _143  and  _145
REMARK   56  A    between atoms: _145  and  _146
REMARK   57  A    between atoms: _145  and  _148
REMARK   58  A    between atoms: _150  and  _152
REMARK   59  A    between atoms: _152  and  _153
REMARK   60  A    between atoms: _152  and  _155
REMARK   61  A    between atoms: _155  and  _156
REMARK   62  A    between atoms: _156  and  _157
REMARK   63  A    between atoms: _157  and  _158
REMARK   64  A    between atoms: _167  and  _169
REMARK   65  A    between atoms: _169  and  _170
REMARK   66  A    between atoms: _169  and  _172
REMARK   67  A    between atoms: _172  and  _173
REMARK   68  A    between atoms: _173  and  _174
REMARK   69  A    between atoms: _174  and  _175
REMARK   70  A    between atoms: _175  and  _176
REMARK   71  A    between atoms: _180  and  _182
REMARK   72  A    between atoms: _182  and  _183
REMARK   73  A    between atoms: _182  and  _185
REMARK   74  A    between atoms: _185  and  _186
REMARK   75  A    between atoms: _189  and  _191
REMARK   76  A    between atoms: _191  and  _192
REMARK   77  A    between atoms: _191  and  _194
REMARK   78  A    between atoms: _194  and  _195
REMARK   79  A    between atoms: _198  and  _200
REMARK   80  A    between atoms: _200  and  _201
REMARK   81  A    between atoms: _200  and  _203
REMARK   82  A    between atoms: _203  and  _204
REMARK   83  A    between atoms: _207  and  _209
REMARK   84  A    between atoms: _209  and  _210
REMARK   85  A    between atoms: _209  and  _212
REMARK   86  A    between atoms: _212  and  _213
REMARK   87  A    between atoms: _219  and  _221
REMARK   88  A    between atoms: _221  and  _222
REMARK   89  A    between atoms: _221  and  _224
REMARK   90  A    between atoms: _224  and  _225
REMARK   91  A    between atoms: _228  and  _230
REMARK   92  A    between atoms: _230  and  _231
REMARK   93  A    between atoms: _230  and  _233
REMARK   94  A    between atoms: _233  and  _234
REMARK   95  A    between atoms: _237  and  _239
REMARK   96  A    between atoms: _239  and  _240
REMARK   97  A    between atoms: _239  and  _242
REMARK   98  A    between atoms: _242  and  _243
REMARK   99  A    between atoms: _246  and  _248
REMARK  100  A    between atoms: _248  and  _249
REMARK  101  A    between atoms: _248  and  _251
REMARK  102  A    between atoms: _254  and  _256
REMARK  103  A    between atoms: _256  and  _257
REMARK  104  A    between atoms: _256  and  _259
REMARK  105  A    between atoms: _259  and  _260
REMARK  106  A    between atoms: _265  and  _266
REMARK  107  A    between atoms: _268  and  _270
REMARK  108  A    between atoms: _270  and  _271
REMARK  109  A    between atoms: _270  and  _273
REMARK  110  A    between atoms: _275  and  _277
REMARK  111  A    between atoms: _277  and  _278
REMARK  112  A    between atoms: _280  and  _282
REMARK  113  A    between atoms: _282  and  _283
REMARK  114  A    between atoms: _282  and  _285
REMARK  115  A    between atoms: _288  and  _290
REMARK  116  A    between atoms: _290  and  _291
REMARK  117  A    between atoms: _294  and  _296
REMARK  118  A    between atoms: _296  and  _297
REMARK  119  A    between atoms: _299  and  _301
REMARK  120  A    between atoms: _301  and  _302
REMARK  121  A    between atoms: _301  and  _304
REMARK  122  A    between atoms: _304  and  _305
REMARK  123  A    between atoms: _308  and  _310
REMARK  124  A    between atoms: _310  and  _311
REMARK  125  A    between atoms: _310  and  _313
REMARK  126  A    between atoms: _316  and  _318
REMARK  127  A    between atoms: _318  and  _319
REMARK  128  A    between atoms: _321  and  _323
REMARK  129  A    between atoms: _323  and  _324
REMARK  130  A    between atoms: _323  and  _326
REMARK  131  A    between atoms: _326  and  _327
REMARK  132  A    between atoms: _327  and  _328
REMARK  133  A    between atoms: _331  and  _333
REMARK  134  A    between atoms: _333  and  _334
REMARK  135  A    between atoms: _333  and  _336
REMARK  136  A    between atoms: _339  and  _341
REMARK  137  A    between atoms: _341  and  _342
REMARK  138  A    between atoms: _341  and  _344
REMARK  139  A    between atoms: _344  and  _345
REMARK  140  A    between atoms: _348  and  _350
REMARK  141  A    between atoms: _350  and  _351
REMARK  142  A    between atoms: _350  and  _353
REMARK  143  A    between atoms: _353  and  _354
REMARK  144  A    between atoms: _357  and  _359
REMARK  145  A    between atoms: _359  and  _360
REMARK  146  A    between atoms: _359  and  _362
REMARK  147  A    between atoms: _362  and  _363
REMARK  148  A    between atoms: _366  and  _368
REMARK  149  A    between atoms: _368  and  _369
REMARK  150  A    between atoms: _368  and  _371
REMARK  151  A    between atoms: _371  and  _372
REMARK  152  A    between atoms: _377  and  _378
REMARK  153  A    between atoms: _380  and  _382
REMARK  154  A    between atoms: _382  and  _383
REMARK  155  A    between atoms: _382  and  _385
REMARK  156  A    between atoms: _388  and  _390
REMARK  157  A    between atoms: _390  and  _391
REMARK  158  A    between atoms: _394  and  _396
REMARK  159  A    between atoms: _396  and  _397
REMARK  160  A    between atoms: _396  and  _399
REMARK  161  A    between atoms: _399  and  _400
REMARK  162  A    between atoms: _400  and  _401
REMARK  163  A    between atoms: _401  and  _402
REMARK  164  A    between atoms: _411  and  _413
REMARK  165  A    between atoms: _413  and  _414
REMARK  166  A    between atoms: _413  and  _416
REMARK  167  A    between atoms: _416  and  _417
REMARK  168  A    between atoms: _417  and  _418
REMARK  169  A    between atoms: _418  and  _419
REMARK  170  A    between atoms: _428  and  _430
REMARK  171  A    between atoms: _430  and  _431
REMARK  172  A    between atoms: _430  and  _433
REMARK  173  A    between atoms: _433  and  _434
REMARK  174  A    between atoms: _437  and  _439
REMARK  175  A    between atoms: _439  and  _440
REMARK  176  A    between atoms: _442  and  _444
REMARK  177  A    between atoms: _444  and  _445
REMARK  178  A    between atoms: _444  and  _447
REMARK  179  A    between atoms: _447  and  _448
REMARK  180  A    between atoms: _448  and  _449
REMARK  181  A    between atoms: _452  and  _454
REMARK  182  A    between atoms: _454  and  _455
REMARK  183  A    between atoms: _454  and  _457
REMARK  184  A    between atoms: _457  and  _458
REMARK  185  A    between atoms: _460  and  _462
REMARK  186  A    between atoms: _462  and  _463
REMARK  187  A    between atoms: _462  and  _465
REMARK  188  A    between atoms: _465  and  _466
REMARK  189  A    between atoms: _469  and  _471
REMARK  190  A    between atoms: _471  and  _472
REMARK  191  A    between atoms: _471  and  _474
REMARK  192  A    between atoms: _474  and  _475
REMARK  193  A    between atoms: _475  and  _476
REMARK  194  A    between atoms: _481  and  _483
REMARK  195  A    between atoms: _483  and  _484
REMARK  196  A    between atoms: _483  and  _486
REMARK  197  A    between atoms: _486  and  _487
REMARK  198  A    between atoms: _492  and  _494
REMARK  199  A    between atoms: _494  and  _495
REMARK  200  A    between atoms: _494  and  _497
REMARK  201  A    between atoms: _497  and  _498
REMARK  202  A    between atoms: _501  and  _503
REMARK  203  A    between atoms: _503  and  _504
REMARK  204  A    between atoms: _503  and  _506
REMARK  205  A    between atoms: _506  and  _507
REMARK  206  A    between atoms: _507  and  _508
REMARK  207  A    between atoms: _508  and  _509
REMARK  208  A    between atoms: _518  and  _520
REMARK  209  A    between atoms: _520  and  _521
REMARK  210  A    between atoms: _520  and  _523
REMARK  211  A    between atoms: _523  and  _524
REMARK  212  A    between atoms: _527  and  _529
REMARK  213  A    between atoms: _529  and  _530
REMARK  214  A    between atoms: _529  and  _532
REMARK  215  A    between atoms: _532  and  _533
REMARK  216  A    between atoms: _536  and  _538
REMARK  217  A    between atoms: _538  and  _539
REMARK  218  A    between atoms: _538  and  _541
REMARK  219  A    between atoms: _541  and  _542
REMARK  220  A    between atoms: _547  and  _548
REMARK  221  A    between atoms: _550  and  _552
REMARK  222  A    between atoms: _552  and  _553
REMARK  223  A    between atoms: _552  and  _555
REMARK  224  A    between atoms: _558  and  _560
REMARK  225  A    between atoms: _560  and  _561
REMARK  226  A    between atoms: _560  and  _563
REMARK  227  A    between atoms: _563  and  _564
REMARK  228  A    between atoms: _570  and  _572
REMARK  229  A    between atoms: _572  and  _573
REMARK  230  A    between atoms: _572  and  _575
REMARK  231  A    between atoms: _575  and  _576
REMARK  232  A    between atoms: _579  and  _581
REMARK  233  A    between atoms: _581  and  _582
REMARK  234  A    between atoms: _585  and  _587
REMARK  235  A    between atoms: _587  and  _588
REMARK  236  A    between atoms: _591  and  _593
REMARK  237  A    between atoms: _593  and  _594
REMARK  238  A    between atoms: _593  and  _596
REMARK  239  A    between atoms: _596  and  _597
REMARK  240  A    between atoms: _602  and  _603
REMARK  241  A    between atoms: _605  and  _607
REMARK  242  A    between atoms: _607  and  _608
REMARK  243  A    between atoms: _607  and  _610
REMARK  244  A    between atoms: _610  and  _611
REMARK  245  A    between atoms: _611  and  _612
REMARK  246  A    between atoms: _612  and  _613
REMARK                            x       y       z     vdW  Elec       q    Type
REMARK                         _______ _______ _______ _____ _____    ______ ____
ROOT
ATOM      1  CA  LEU A   1      10.592 -34.719   3.007  0.00  0.00    +0.133 C 
ENDROOT
BRANCH   1   2
ATOM      2  N   LEU A   1       9.687 -35.862   2.880  0.00  0.00    -0.239 NA
ATOM      3  H   LEU A   1       9.194 -36.214   3.725  0.00  0.00    +0.142 HD
ENDBRANCH   1   2
BRANCH   1   4
ATOM      4  C   LEU A   1      11.986 -35.077   3.524  0.00  0.00    +0.224 C 
ATOM      5  O   LEU A   1      12.818 -34.196   3.746  0.00  0.00    -0.287 OA
ENDBRANCH   1   4
BRANCH   1   6
ATOM      6  CB  LEU A   1       9.973 -33.661   3.923  0.00  0.00    +0.025 C 
BRANCH   6   7
ATOM      7  CG  LEU A   1       8.597 -33.135   3.504  0.00  0.00    +0.002 C 
ATOM      8  CD2 LEU A   1       8.114 -32.105   4.510  0.00  0.00    +0.000 C 
ATOM      9  CD1 LEU A   1       8.641 -32.545   2.107  0.00  0.00    +0.000 C 
ENDBRANCH   6   7
ENDBRANCH   1   6
TORSDOF 4
REMARK  Name = ../refined-set-2016/3tfp/3tfp_pocket.pdb
REMARK  246 active torsions:
REMARK  status: ('A' for Active; 'I' for Inactive)
REMARK    1  A    between atoms: _1  and  _3
REMARK    2  A    between atoms: _3  and  _4
REMARK    3  A    between atoms: _3  and  _6
REMARK    4  A    between atoms: _6  and  _7
REMARK    5  A    between atoms: _10  and  _12
REMARK    6  A    between atoms: _12  and  _13
REMARK    7  A    between atoms: _12  and  _15
REMARK    8  A    between atoms: _15  and  _16
REMARK    9  A    between atoms: _16  and  _17
REMARK   10  A    between atoms: _19  and  _21
REMARK   11  A    between atoms: _21  and  _22
REMARK   12  A    between atoms: _21  and  _24
REMARK   13  A    between atoms: _24  and  _25
REMARK   14  A    between atoms: _30  and  _32
REMARK   15  A    between atoms: _32  and  _33
REMARK   16  A    between atoms: _32  and  _35
REMARK   17  A    between atoms: _35  and  _36
REMARK   18  A    between atoms: _38  and  _40
REMARK   19  A    between atoms: _40  and  _41
REMARK   20  A    between atoms: _40  and  _43
REMARK   21  A    between atoms: _43  and  _44
REMARK   22  A    between atoms: _50  and  _52
REMARK   23  A    between atoms: _52  and  _53
REMARK   24  A    between atoms: _52  and  _55
REMARK   25  A    between atoms: _55  and  _56
REMARK   26  A    between atoms: _58  and  _60
REMARK   27  A    between atoms: _60  and  _61
REMARK   28  A    between atoms: _60  and  _63
REMARK   29  A    between atoms: _63  and  _64
REMARK   30  A    between atoms: _70  and  _72
REMARK   31  A    between atoms: _72  and  _73
REMARK   32  A    between atoms: _76  and  _78
REMARK   33  A    between atoms: _78  and  _79
REMARK   34  A    between atoms: _78  and  _81
REMARK   35  A    between atoms: _84  and  _86
REMARK   36  A    between atoms: _86  and  _87
REMARK   37  A    between atoms: _86  and  _89
REMARK   38  A    between atoms: _89  and  _90
REMARK   39  A    between atoms: _100  and  _102
REMARK   40  A    between atoms: _102  and  _103
REMARK   41  A    between atoms: _106  and  _108
REMARK   42  A    between atoms: _108  and  _109
REMARK   43  A    between atoms: _108  and  _111
REMARK   44  A    between atoms: _111  and  _112
REMARK   45  A    between atoms: _115  and  _117
REMARK   46  A    between atoms: _117  and  _118
REMARK   47  A    between atoms: _117  and  _120
REMARK   48  A    between atoms: _120  and  _121
REMARK   49  A    between atoms: _126  and  _127
REMARK   50  A    between atoms: _129  and  _131
REMARK   51  A    between atoms: _131  and  _132
REMARK   52  A    between atoms: _135  and  _137
REMARK   53  A    between atoms: _137  and  _138
REMARK   54  A    between atoms: _137  and  _140
REMARK   55  A    between atoms: _143  and  _145
REMARK   56  A    between atoms: _145  and  _146
REMARK   57  A    between atoms: _145  and  _148
REMARK   58  A    between atoms: _150  and  _152
REMARK   59  A    between atoms: _152  and  _153
REMARK   60  A    between atoms: _152  and  _155
REMARK   61  A    between atoms: _155  and  _156
REMARK   62  A    between atoms: _156  and  _157
REMARK   63  A    between atoms: _157  and  _158
REMARK   64  A    between atoms: _167  and  _169
REMARK   65  A    between atoms: _169  and  _170
REMARK   66  A    between atoms: _169  and  _172
REMARK   67  A    between atoms: _172  and  _173
REMARK   68  A    between atoms: _173  and  _174
REMARK   69  A    between atoms: _174  and  _175
REMARK   70  A    between atoms: _175  and  _176
REMARK   71  A    between atoms: _180  and  _182
REMARK   72  A    between atoms: _182  and  _183
REMARK   73  A    between atoms: _182  and  _185
REMARK   74  A    between atoms: _185  and  _186
REMARK   75  A    between atoms: _189  and  _191
REMARK   76  A    between atoms: _191  and  _192
REMARK   77  A    between atoms: _191  and  _194
REMARK   78  A    between atoms: _194  and  _195
REMARK   79  A    between atoms: _198  and  _200
REMARK   80  A    between atoms: _200  and  _201
REMARK   81  A    between atoms: _200  and  _203
REMARK   82  A    between atoms: _203  and  _204
REMARK   83  A    between atoms: _207  and  _209
REMARK   84  A    between atoms: _209  and  _210
REMARK   85  A    between atoms: _209  and  _212
REMARK   86  A    between atoms: _212  and  _213
REMARK   87  A    between atoms: _219  and  _221
REMARK   88  A    between atoms: _221  and  _222
REMARK   89  A    between atoms: _221  and  _224
REMARK   90  A    between atoms: _224  and  _225
REMARK   91  A    between atoms: _228  and  _230
REMARK   92  A    between atoms: _230  and  _231
REMARK   93  A    between atoms: _230  and  _233
REMARK   94  A    between atoms: _233  and  _234
REMARK   95  A    between atoms: _237  and  _239
REMARK   96  A    between atoms: _239  and  _240
REMARK   97  A    between atoms: _239  and  _242
REMARK   98  A    between atoms: _242  and  _243
REMARK   99  A    between atoms: _246  and  _248
REMARK  100  A    between atoms: _248  and  _249
REMARK  101  A    between atoms: _248  and  _251
REMARK  102  A    between atoms: _254  and  _256
REMARK  103  A    between atoms: _256  and  _257
REMARK  104  A    between atoms: _256  and  _259
REMARK  105  A    between atoms: _259  and  _260
REMARK  106  A    between atoms: _265  and  _266
REMARK  107  A    between atoms: _268  and  _270
REMARK  108  A    between atoms: _270  and  _271
REMARK  109  A    between atoms: _270  and  _273
REMARK  110  A    between atoms: _275  and  _277
REMARK  111  A    between atoms: _277  and  _278
REMARK  112  A    between atoms: _280  and  _282
REMARK  113  A    between atoms: _282  and  _283
REMARK  114  A    between atoms: _282  and  _285
REMARK  115  A    between atoms: _288  and  _290
REMARK  116  A    between atoms: _290  and  _291
REMARK  117  A    between atoms: _294  and  _296
REMARK  118  A    between atoms: _296  and  _297
REMARK  119  A    between atoms: _299  and  _301
REMARK  120  A    between atoms: _301  and  _302
REMARK  121  A    between atoms: _301  and  _304
REMARK  122  A    between atoms: _304  and  _305
REMARK  123  A    between atoms: _308  and  _310
REMARK  124  A    between atoms: _310  and  _311
REMARK  125  A    between atoms: _310  and  _313
REMARK  126  A    between atoms: _316  and  _318
REMARK  127  A    between atoms: _318  and  _319
REMARK  128  A    between atoms: _321  and  _323
REMARK  129  A    between atoms: _323  and  _324
REMARK  130  A    between atoms: _323  and  _326
REMARK  131  A    between atoms: _326  and  _327
REMARK  132  A    between atoms: _327  and  _328
REMARK  133  A    between atoms: _331  and  _333
REMARK  134  A    between atoms: _333  and  _334
REMARK  135  A    between atoms: _333  and  _336
REMARK  136  A    between atoms: _339  and  _341
REMARK  137  A    between atoms: _341  and  _342
REMARK  138  A    between atoms: _341  and  _344
REMARK  139  A    between atoms: _344  and  _345
REMARK  140  A    between atoms: _348  and  _350
REMARK  141  A    between atoms: _350  and  _351
REMARK  142  A    between atoms: _350  and  _353
REMARK  143  A    between atoms: _353  and  _354
REMARK  144  A    between atoms: _357  and  _359
REMARK  145  A    between atoms: _359  and  _360
REMARK  146  A    between atoms: _359  and  _362
REMARK  147  A    between atoms: _362  and  _363
REMARK  148  A    between atoms: _366  and  _368
REMARK  149  A    between atoms: _368  and  _369
REMARK  150  A    between atoms: _368  and  _371
REMARK  151  A    between atoms: _371  and  _372
REMARK  152  A    between atoms: _377  and  _378
REMARK  153  A    between atoms: _380  and  _382
REMARK  154  A    between atoms: _382  and  _383
REMARK  155  A    between atoms: _382  and  _385
REMARK  156  A    between atoms: _388  and  _390
REMARK  157  A    between atoms: _390  and  _391
REMARK  158  A    between atoms: _394  and  _396
REMARK  159  A    between atoms: _396  and  _397
REMARK  160  A    between atoms: _396  and  _399
REMARK  161  A    between atoms: _399  and  _400
REMARK  162  A    between atoms: _400  and  _401
REMARK  163  A    between atoms: _401  and  _402
REMARK  164  A    between atoms: _411  and  _413
REMARK  165  A    between atoms: _413  and  _414
REMARK  166  A    between atoms: _413  and  _416
REMARK  167  A    between atoms: _416  and  _417
REMARK  168  A    between atoms: _417  and  _418
REMARK  169  A    between atoms: _418  and  _419
REMARK  170  A    between atoms: _428  and  _430
REMARK  171  A    between atoms: _430  and  _431
REMARK  172  A    between atoms: _430  and  _433
REMARK  173  A    between atoms: _433  and  _434
REMARK  174  A    between atoms: _437  and  _439
REMARK  175  A    between atoms: _439  and  _440
REMARK  176  A    between atoms: _442  and  _444
REMARK  177  A    between atoms: _444  and  _445
REMARK  178  A    between atoms: _444  and  _447
REMARK  179  A    between atoms: _447  and  _448
REMARK  180  A    between atoms: _448  and  _449
REMARK  181  A    between atoms: _452  and  _454
REMARK  182  A    between atoms: _454  and  _455
REMARK  183  A    between atoms: _454  and  _457
REMARK  184  A    between atoms: _457  and  _458
REMARK  185  A    between atoms: _460  and  _462
REMARK  186  A    between atoms: _462  and  _463
REMARK  187  A    between atoms: _462  and  _465
REMARK  188  A    between atoms: _465  and  _466
REMARK  189  A    between atoms: _469  and  _471
REMARK  190  A    between atoms: _471  and  _472
REMARK  191  A    between atoms: _471  and  _474
REMARK  192  A    between atoms: _474  and  _475
REMARK  193  A    between atoms: _475  and  _476
REMARK  194  A    between atoms: _481  and  _483
REMARK  195  A    between atoms: _483  and  _484
REMARK  196  A    between atoms: _483  and  _486
REMARK  197  A    between atoms: _486  and  _487
REMARK  198  A    between atoms: _492  and  _494
REMARK  199  A    between atoms: _494  and  _495
REMARK  200  A    between atoms: _494  and  _497
REMARK  201  A    between atoms: _497  and  _498
REMARK  202  A    between atoms: _501  and  _503
REMARK  203  A    between atoms: _503  and  _504
REMARK  204  A    between atoms: _503  and  _506
REMARK  205  A    between atoms: _506  and  _507
REMARK  206  A    between atoms: _507  and  _508
REMARK  207  A    between atoms: _508  and  _509
REMARK  208  A    between atoms: _518  and  _520
REMARK  209  A    between atoms: _520  and  _521
REMARK  210  A    between atoms: _520  and  _523
REMARK  211  A    between atoms: _523  and  _524
REMARK  212  A    between atoms: _527  and  _529
REMARK  213  A    between atoms: _529  and  _530
REMARK  214  A    between atoms: _529  and  _532
REMARK  215  A    between atoms: _532  and  _533
REMARK  216  A    between atoms: _536  and  _538
REMARK  217  A    between atoms: _538  and  _539
REMARK  218  A    between atoms: _538  and  _541
REMARK  219  A    between atoms: _541  and  _542
REMARK  220  A    between atoms: _547  and  _548
REMARK  221  A    between atoms: _550  and  _552
REMARK  222  A    between atoms: _552  and  _553
REMARK  223  A    between atoms: _552  and  _555
REMARK  224  A    between atoms: _558  and  _560
REMARK  225  A    between atoms: _560  and  _561
REMARK  226  A    between atoms: _560  and  _563
REMARK  227  A    between atoms: _563  and  _564
REMARK  228  A    between atoms: _570  and  _572
REMARK  229  A    between atoms: _572  and  _573
REMARK  230  A    between atoms: _572  and  _575
REMARK  231  A    between atoms: _575  and  _576
REMARK  232  A    between atoms: _579  and  _581
REMARK  233  A    between atoms: _581  and  _582
REMARK  234  A    between atoms: _585  and  _587
REMARK  235  A    between atoms: _587  and  _588
REMARK  236  A    between atoms: _591  and  _593
REMARK  237  A    between atoms: _593  and  _594
REMARK  238  A    between atoms: _593  and  _596
REMARK  239  A    between atoms: _596  and  _597
REMARK  240  A    between atoms: _602  and  _603
REMARK  241  A    between atoms: _605  and  _607
REMARK  242  A    between atoms: _607  and  _608
REMARK  243  A    between atoms: _607  and  _610
REMARK  244  A    between atoms: _610  and  _611
REMARK  245  A    between atoms: _611  and  _612
REMARK  246  A    between atoms: _612  and  _613
REMARK                            x       y       z     vdW  Elec       q    Type
REMARK                         _______ _______ _______ _____ _____    ______ ____
ROOT
ATOM      1  CG  TYR A   1       8.717 -39.401  12.441  0.00  0.00    -0.020 A 
ATOM      2  CD2 TYR A   1       9.692 -40.358  12.208  0.00  0.00    -0.001 A 
ATOM      3  CE2 TYR A   1       9.544 -41.306  11.200  0.00  0.00    +0.036 A 
ATOM      4  CZ  TYR A   1       8.405 -41.300  10.415  0.00  0.00    +0.134 A 
ATOM      5  CE1 TYR A   1       7.422 -40.353  10.624  0.00  0.00    +0.036 A 
ATOM      6  CD1 TYR A   1       7.579 -39.411  11.635  0.00  0.00    -0.001 A 
ENDROOT
BRANCH   4   7
ATOM      7  OH  TYR A   1       8.258 -42.239   9.415  0.00  0.00    -0.506 OA
ATOM      8  HH  TYR A   1       7.394 -42.095   8.953  0.00  0.00    +0.292 HD
ENDBRANCH   4   7
BRANCH   1   9
ATOM      9  CB  TYR A   1       8.885 -38.370  13.528  0.00  0.00    +0.051 C 
BRANCH   9  10
ATOM     10  CA  TYR A   1       9.394 -37.015  13.025  0.00  0.00    +0.137 C 
BRANCH  10  11
ATOM     11  N   TYR A   1      10.791 -37.089  12.636  0.00  0.00    -0.239 NA
ATOM     12  H   TYR A   1      11.330 -37.955  12.839  0.00  0.00    +0.142 HD
ENDBRANCH  10  11
BRANCH  10  13
ATOM     13  C   TYR A   1       9.181 -35.934  14.081  0.00  0.00    +0.224 C 
ATOM     14  O   TYR A   1       8.195 -35.205  14.024  0.00  0.00    -0.287 OA
ENDBRANCH  10  13
ENDBRANCH   9  10
ENDBRANCH   1   9
TORSDOF 5
REMARK  Name = ../refined-set-2016/3tfp/3tfp_pocket.pdb
REMARK  246 active torsions:
REMARK  status: ('A' for Active; 'I' for Inactive)
REMARK    1  A    between atoms: _1  and  _3
REMARK    2  A    between atoms: _3  and  _4
REMARK    3  A    between atoms: _3  and  _6
REMARK    4  A    between atoms: _6  and  _7
REMARK    5  A    between atoms: _10  and  _12
REMARK    6  A    between atoms: _12  and  _13
REMARK    7  A    between atoms: _12  and  _15
REMARK    8  A    between atoms: _15  and  _16
REMARK    9  A    between atoms: _16  and  _17
REMARK   10  A    between atoms: _19  and  _21
REMARK   11  A    between atoms: _21  and  _22
REMARK   12  A    between atoms: _21  and  _24
REMARK   13  A    between atoms: _24  and  _25
REMARK   14  A    between atoms: _30  and  _32
REMARK   15  A    between atoms: _32  and  _33
REMARK   16  A    between atoms: _32  and  _35
REMARK   17  A    between atoms: _35  and  _36
REMARK   18  A    between atoms: _38  and  _40
REMARK   19  A    between atoms: _40  and  _41
REMARK   20  A    between atoms: _40  and  _43
REMARK   21  A    between atoms: _43  and  _44
REMARK   22  A    between atoms: _50  and  _52
REMARK   23  A    between atoms: _52  and  _53
REMARK   24  A    between atoms: _52  and  _55
REMARK   25  A    between atoms: _55  and  _56
REMARK   26  A    between atoms: _58  and  _60
REMARK   27  A    between atoms: _60  and  _61
REMARK   28  A    between atoms: _60  and  _63
REMARK   29  A    between atoms: _63  and  _64
REMARK   30  A    between atoms: _70  and  _72
REMARK   31  A    between atoms: _72  and  _73
REMARK   32  A    between atoms: _76  and  _78
REMARK   33  A    between atoms: _78  and  _79
REMARK   34  A    between atoms: _78  and  _81
REMARK   35  A    between atoms: _84  and  _86
REMARK   36  A    between atoms: _86  and  _87
REMARK   37  A    between atoms: _86  and  _89
REMARK   38  A    between atoms: _89  and  _90
REMARK   39  A    between atoms: _100  and  _102
REMARK   40  A    between atoms: _102  and  _103
REMARK   41  A    between atoms: _106  and  _108
REMARK   42  A    between atoms: _108  and  _109
REMARK   43  A    between atoms: _108  and  _111
REMARK   44  A    between atoms: _111  and  _112
REMARK   45  A    between atoms: _115  and  _117
REMARK   46  A    between atoms: _117  and  _118
REMARK   47  A    between atoms: _117  and  _120
REMARK   48  A    between atoms: _120  and  _121
REMARK   49  A    between atoms: _126  and  _127
REMARK   50  A    between atoms: _129  and  _131
REMARK   51  A    between atoms: _131  and  _132
REMARK   52  A    between atoms: _135  and  _137
REMARK   53  A    between atoms: _137  and  _138
REMARK   54  A    between atoms: _137  and  _140
REMARK   55  A    between atoms: _143  and  _145
REMARK   56  A    between atoms: _145  and  _146
REMARK   57  A    between atoms: _145  and  _148
REMARK   58  A    between atoms: _150  and  _152
REMARK   59  A    between atoms: _152  and  _153
REMARK   60  A    between atoms: _152  and  _155
REMARK   61  A    between atoms: _155  and  _156
REMARK   62  A    between atoms: _156  and  _157
REMARK   63  A    between atoms: _157  and  _158
REMARK   64  A    between atoms: _167  and  _169
REMARK   65  A    between atoms: _169  and  _170
REMARK   66  A    between atoms: _169  and  _172
REMARK   67  A    between atoms: _172  and  _173
REMARK   68  A    between atoms: _173  and  _174
REMARK   69  A    between atoms: _174  and  _175
REMARK   70  A    between atoms: _175  and  _176
REMARK   71  A    between atoms: _180  and  _182
REMARK   72  A    between atoms: _182  and  _183
REMARK   73  A    between atoms: _182  and  _185
REMARK   74  A    between atoms: _185  and  _186
REMARK   75  A    between atoms: _189  and  _191
REMARK   76  A    between atoms: _191  and  _192
REMARK   77  A    between atoms: _191  and  _194
REMARK   78  A    between atoms: _194  and  _195
REMARK   79  A    between atoms: _198  and  _200
REMARK   80  A    between atoms: _200  and  _201
REMARK   81  A    between atoms: _200  and  _203
REMARK   82  A    between atoms: _203  and  _204
REMARK   83  A    between atoms: _207  and  _209
REMARK   84  A    between atoms: _209  and  _210
REMARK   85  A    between atoms: _209  and  _212
REMARK   86  A    between atoms: _212  and  _213
REMARK   87  A    between atoms: _219  and  _221
REMARK   88  A    between atoms: _221  and  _222
REMARK   89  A    between atoms: _221  and  _224
REMARK   90  A    between atoms: _224  and  _225
REMARK   91  A    between atoms: _228  and  _230
REMARK   92  A    between atoms: _230  and  _231
REMARK   93  A    between atoms: _230  and  _233
REMARK   94  A    between atoms: _233  and  _234
REMARK   95  A    between atoms: _237  and  _239
REMARK   96  A    between atoms: _239  and  _240
REMARK   97  A    between atoms: _239  and  _242
REMARK   98  A    between atoms: _242  and  _243
REMARK   99  A    between atoms: _246  and  _248
REMARK  100  A    between atoms: _248  and  _249
REMARK  101  A    between atoms: _248  and  _251
REMARK  102  A    between atoms: _254  and  _256
REMARK  103  A    between atoms: _256  and  _257
REMARK  104  A    between atoms: _256  and  _259
REMARK  105  A    between atoms: _259  and  _260
REMARK  106  A    between atoms: _265  and  _266
REMARK  107  A    between atoms: _268  and  _270
REMARK  108  A    between atoms: _270  and  _271
REMARK  109  A    between atoms: _270  and  _273
REMARK  110  A    between atoms: _275  and  _277
REMARK  111  A    between atoms: _277  and  _278
REMARK  112  A    between atoms: _280  and  _282
REMARK  113  A    between atoms: _282  and  _283
REMARK  114  A    between atoms: _282  and  _285
REMARK  115  A    between atoms: _288  and  _290
REMARK  116  A    between atoms: _290  and  _291
REMARK  117  A    between atoms: _294  and  _296
REMARK  118  A    between atoms: _296  and  _297
REMARK  119  A    between atoms: _299  and  _301
REMARK  120  A    between atoms: _301  and  _302
REMARK  121  A    between atoms: _301  and  _304
REMARK  122  A    between atoms: _304  and  _305
REMARK  123  A    between atoms: _308  and  _310
REMARK  124  A    between atoms: _310  and  _311
REMARK  125  A    between atoms: _310  and  _313
REMARK  126  A    between atoms: _316  and  _318
REMARK  127  A    between atoms: _318  and  _319
REMARK  128  A    between atoms: _321  and  _323
REMARK  129  A    between atoms: _323  and  _324
REMARK  130  A    between atoms: _323  and  _326
REMARK  131  A    between atoms: _326  and  _327
REMARK  132  A    between atoms: _327  and  _328
REMARK  133  A    between atoms: _331  and  _333
REMARK  134  A    between atoms: _333  and  _334
REMARK  135  A    between atoms: _333  and  _336
REMARK  136  A    between atoms: _339  and  _341
REMARK  137  A    between atoms: _341  and  _342
REMARK  138  A    between atoms: _341  and  _344
REMARK  139  A    between atoms: _344  and  _345
REMARK  140  A    between atoms: _348  and  _350
REMARK  141  A    between atoms: _350  and  _351
REMARK  142  A    between atoms: _350  and  _353
REMARK  143  A    between atoms: _353  and  _354
REMARK  144  A    between atoms: _357  and  _359
REMARK  145  A    between atoms: _359  and  _360
REMARK  146  A    between atoms: _359  and  _362
REMARK  147  A    between atoms: _362  and  _363
REMARK  148  A    between atoms: _366  and  _368
REMARK  149  A    between atoms: _368  and  _369
REMARK  150  A    between atoms: _368  and  _371
REMARK  151  A    between atoms: _371  and  _372
REMARK  152  A    between atoms: _377  and  _378
REMARK  153  A    between atoms: _380  and  _382
REMARK  154  A    between atoms: _382  and  _383
REMARK  155  A    between atoms: _382  and  _385
REMARK  156  A    between atoms: _388  and  _390
REMARK  157  A    between atoms: _390  and  _391
REMARK  158  A    between atoms: _394  and  _396
REMARK  159  A    between atoms: _396  and  _397
REMARK  160  A    between atoms: _396  and  _399
REMARK  161  A    between atoms: _399  and  _400
REMARK  162  A    between atoms: _400  and  _401
REMARK  163  A    between atoms: _401  and  _402
REMARK  164  A    between atoms: _411  and  _413
REMARK  165  A    between atoms: _413  and  _414
REMARK  166  A    between atoms: _413  and  _416
REMARK  167  A    between atoms: _416  and  _417
REMARK  168  A    between atoms: _417  and  _418
REMARK  169  A    between atoms: _418  and  _419
REMARK  170  A    between atoms: _428  and  _430
REMARK  171  A    between atoms: _430  and  _431
REMARK  172  A    between atoms: _430  and  _433
REMARK  173  A    between atoms: _433  and  _434
REMARK  174  A    between atoms: _437  and  _439
REMARK  175  A    between atoms: _439  and  _440
REMARK  176  A    between atoms: _442  and  _444
REMARK  177  A    between atoms: _444  and  _445
REMARK  178  A    between atoms: _444  and  _447
REMARK  179  A    between atoms: _447  and  _448
REMARK  180  A    between atoms: _448  and  _449
REMARK  181  A    between atoms: _452  and  _454
REMARK  182  A    between atoms: _454  and  _455
REMARK  183  A    between atoms: _454  and  _457
REMARK  184  A    between atoms: _457  and  _458
REMARK  185  A    between atoms: _460  and  _462
REMARK  186  A    between atoms: _462  and  _463
REMARK  187  A    between atoms: _462  and  _465
REMARK  188  A    between atoms: _465  and  _466
REMARK  189  A    between atoms: _469  and  _471
REMARK  190  A    between atoms: _471  and  _472
REMARK  191  A    between atoms: _471  and  _474
REMARK  192  A    between atoms: _474  and  _475
REMARK  193  A    between atoms: _475  and  _476
REMARK  194  A    between atoms: _481  and  _483
REMARK  195  A    between atoms: _483  and  _484
REMARK  196  A    between atoms: _483  and  _486
REMARK  197  A    between atoms: _486  and  _487
REMARK  198  A    between atoms: _492  and  _494
REMARK  199  A    between atoms: _494  and  _495
REMARK  200  A    between atoms: _494  and  _497
REMARK  201  A    between atoms: _497  and  _498
REMARK  202  A    between atoms: _501  and  _503
REMARK  203  A    between atoms: _503  and  _504
REMARK  204  A    between atoms: _503  and  _506
REMARK  205  A    between atoms: _506  and  _507
REMARK  206  A    between atoms: _507  and  _508
REMARK  207  A    between atoms: _508  and  _509
REMARK  208  A    between atoms: _518  and  _520
REMARK  209  A    between atoms: _520  and  _521
REMARK  210  A    between atoms: _520  and  _523
REMARK  211  A    between atoms: _523  and  _524
REMARK  212  A    between atoms: _527  and  _529
REMARK  213  A    between atoms: _529  and  _530
REMARK  214  A    between atoms: _529  and  _532
REMARK  215  A    between atoms: _532  and  _533
REMARK  216  A    between atoms: _536  and  _538
REMARK  217  A    between atoms: _538  and  _539
REMARK  218  A    between atoms: _538  and  _541
REMARK  219  A    between atoms: _541  and  _542
REMARK  220  A    between atoms: _547  and  _548
REMARK  221  A    between atoms: _550  and  _552
REMARK  222  A    between atoms: _552  and  _553
REMARK  223  A    between atoms: _552  and  _555
REMARK  224  A    between atoms: _558  and  _560
REMARK  225  A    between atoms: _560  and  _561
REMARK  226  A    between atoms: _560  and  _563
REMARK  227  A    between atoms: _563  and  _564
REMARK  228  A    between atoms: _570  and  _572
REMARK  229  A    between atoms: _572  and  _573
REMARK  230  A    between atoms: _572  and  _575
REMARK  231  A    between atoms: _575  and  _576
REMARK  232  A    between atoms: _579  and  _581
REMARK  233  A    between atoms: _581  and  _582
REMARK  234  A    between atoms: _585  and  _587
REMARK  235  A    between atoms: _587  and  _588
REMARK  236  A    between atoms: _591  and  _593
REMARK  237  A    between atoms: _593  and  _594
REMARK  238  A    between atoms: _593  and  _596
REMARK  239  A    between atoms: _596  and  _597
REMARK  240  A    between atoms: _602  and  _603
REMARK  241  A    between atoms: _605  and  _607
REMARK  242  A    between atoms: _607  and  _608
REMARK  243  A    between atoms: _607  and  _610
REMARK  244  A    between atoms: _610  and  _611
REMARK  245  A    between atoms: _611  and  _612
REMARK  246  A    between atoms: _612  and  _613
REMARK                            x       y       z     vdW  Elec       q    Type
REMARK                         _______ _______ _______ _____ _____    ______ ____
ROOT
ATOM      1  CA  LEU A   5       6.772 -27.613  12.660  0.00  0.00    +0.149 C 
ENDROOT
BRANCH   1   2
ATOM      2  C   LEU A   5       5.263 -27.537  12.455  0.00  0.00    +0.241 C 
ATOM      3  O   LEU A   5       4.680 -26.460  12.453  0.00  0.00    -0.273 OA
ATOM      4  N   GLY A   6       4.633 -28.695  12.289  0.00  0.00    -0.295 N 
ATOM      5  H   GLY A   6       5.179 -29.580  12.312  0.00  0.00    +0.150 HD
BRANCH   4   6
ATOM      6  CA  GLY A   6       3.196 -28.751  12.076  0.00  0.00    +0.176 C 
BRANCH   6   7
ATOM      7  C   GLY A   6       2.440 -28.046  13.176  0.00  0.00    +0.243 C 
ATOM      8  N   GLU A   7       2.845 -28.306  14.408  0.00  0.00    -0.297 N 
ATOM      9  H   GLU A   7       3.668 -28.922  14.566  0.00  0.00    +0.150 HD
ATOM     10  O   GLY A   6       1.515 -27.263  12.935  0.00  0.00    -0.273 OA
BRANCH   8  11
ATOM     11  CA  GLU A   7       2.141 -27.732  15.536  0.00  0.00    +0.149 C 
BRANCH  11  12
ATOM     12  C   GLU A   7       2.355 -26.223  15.641  0.00  0.00    +0.241 C 
ATOM     13  O   GLU A   7       1.487 -25.505  16.122  0.00  0.00    -0.273 OA
ATOM     14  N   SER A   8       3.508 -25.748  15.177  0.00  0.00    -0.295 N 
ATOM     15  H   SER A   8       4.222 -26.411  14.814  0.00  0.00    +0.150 HD
BRANCH  14  16
ATOM     16  CA  SER A   8       3.793 -24.315  15.166  0.00  0.00    +0.178 C 
BRANCH  16  17
ATOM     17  C   SER A   8       2.959 -23.588  14.105  0.00  0.00    +0.243 C 
ATOM     18  O   SER A   8       2.470 -22.481  14.329  0.00  0.00    -0.273 OA
ATOM     19  N   LEU A   9       2.821 -24.213  12.944  0.00  0.00    -0.297 N 
ATOM     20  H   LEU A   9       3.324 -25.110  12.789  0.00  0.00    +0.150 HD
BRANCH  19  21
ATOM     21  CA  LEU A   9       1.984 -23.676  11.880  0.00  0.00    +0.149 C 
BRANCH  21  22
ATOM     22  C   LEU A   9       0.533 -23.590  12.334  0.00  0.00    +0.241 C 
ATOM     23  N   GLN A  10       0.060 -24.595  13.066  0.00  0.00    -0.298 N 
ATOM     24  H   GLN A  10       0.671 -25.405  13.293  0.00  0.00    +0.150 HD
ATOM     25  O   LEU A   9      -0.154 -22.619  12.035  0.00  0.00    -0.273 OA
BRANCH  23  26
ATOM     26  CA  GLN A  10      -1.322 -24.561  13.552  0.00  0.00    +0.137 C 
BRANCH  26  27
ATOM     27  C   GLN A  10      -1.547 -23.437  14.548  0.00  0.00    +0.227 C 
ATOM     28  O   GLN A  10      -2.601 -22.805  14.553  0.00  0.00    -0.286 OA
ENDBRANCH  26  27
BRANCH  26  29
ATOM     29  CB  GLN A  10      -1.750 -25.883  14.197  0.00  0.00    +0.037 C 
BRANCH  29  30
ATOM     30  CG  GLN A  10      -3.247 -25.914  14.557  0.00  0.00    +0.087 C 
BRANCH  30  31
ATOM     31  CD  GLN A  10      -4.145 -25.673  13.345  0.00  0.00    +0.219 C 
ATOM     32  NE2 GLN A  10      -5.356 -25.174  13.588  0.00  0.00    -0.329 N 
ATOM     33 HE21 GLN A  10      -5.651 -24.977  14.566  0.00  0.00    +0.145 HD
ATOM     34 HE22 GLN A  10      -6.007 -24.981  12.800  0.00  0.00    +0.145 HD
ATOM     35  OE1 GLN A  10      -3.749 -25.923  12.208  0.00  0.00    -0.275 OA
ENDBRANCH  30  31
ENDBRANCH  29  30
ENDBRANCH  26  29
ENDBRANCH  23  26
ENDBRANCH  21  22
BRANCH  21  36
ATOM     36  CB  LEU A   9       2.092 -24.535  10.618  0.00  0.00    +0.029 C 
BRANCH  36  37
ATOM     37  CG  LEU A   9       3.461 -24.541   9.937  0.00  0.00    +0.002 C 
ATOM     38  CD2 LEU A   9       3.781 -23.164   9.369  0.00  0.00    +0.000 C 
ATOM     39  CD1 LEU A   9       3.522 -25.606   8.848  0.00  0.00    +0.000 C 
ENDBRANCH  36  37
ENDBRANCH  21  36
ENDBRANCH  19  21
ENDBRANCH  16  17
BRANCH  16  40
ATOM     40  CB  SER A   8       5.275 -24.079  14.894  0.00  0.00    +0.166 C 
BRANCH  40  41
ATOM     41  OG  SER A   8       6.058 -24.763  15.853  0.00  0.00    -0.380 OA
ATOM     42  H   SER A   8       5.867 -25.733  15.802  0.00  0.00    +0.211 HD
ENDBRANCH  40  41
ENDBRANCH  16  40
ENDBRANCH  14  16
ENDBRANCH  11  12
BRANCH  11  43
ATOM     43  CB  GLU A   7       2.544 -28.446  16.821  0.00  0.00    +0.041 C 
BRANCH  43  44
ATOM     44  CG  GLU A   7       2.192 -29.936  16.791  0.00  0.00    +0.116 C 
BRANCH  44  45
ATOM     45  CD  GLU A   7       2.693 -30.661  18.014  0.00  0.00    +0.365 C 
ATOM     46  OE2 GLU A   7       2.993 -29.984  19.020  0.00  0.00    -0.246 OA
ATOM     47  OE1 GLU A   7       2.776 -31.902  17.978  0.00  0.00    -0.246 OA
ENDBRANCH  44  45
ENDBRANCH  43  44
ENDBRANCH  11  43
ENDBRANCH   8  11
ENDBRANCH   6   7
ENDBRANCH   4   6
ENDBRANCH   1   2
BRANCH   1  50
ATOM     48  C   ARG A   4       6.589 -28.427  14.942  0.00  0.00    +0.241 C 
ATOM     49  O   ARG A   4       5.923 -27.456  15.290  0.00  0.00    -0.273 OA
ATOM     50  N   LEU A   5       7.068 -28.573  13.714  0.00  0.00    -0.297 N 
ATOM     51  H   LEU A   5       7.670 -29.393  13.499  0.00  0.00    +0.150 HD
BRANCH  48  52
ATOM     52  CA  ARG A   4       6.931 -29.534  15.930  0.00  0.00    +0.149 C 
BRANCH  52  54
ATOM     53  C   ARG A   3       5.666 -31.324  14.879  0.00  0.00    +0.241 C 
ATOM     54  N   ARG A   4       6.829 -30.844  15.303  0.00  0.00    -0.297 N 
ATOM     55  H   ARG A   4       7.688 -31.418  15.184  0.00  0.00    +0.150 HD
ATOM     56  O   ARG A   3       4.613 -30.692  14.986  0.00  0.00    -0.273 OA
BRANCH  53  57
ATOM     57  CA  ARG A   3       5.706 -32.714  14.237  0.00  0.00    +0.149 C 
BRANCH  57  59
ATOM     58  C   ALA A   2       6.941 -32.118  12.216  0.00  0.00    +0.241 C 
ATOM     59  N   ARG A   3       6.839 -32.820  13.338  0.00  0.00    -0.297 N 
ATOM     60  H   ARG A   3       7.607 -33.476  13.584  0.00  0.00    +0.150 HD
ATOM     61  O   ALA A   2       6.073 -31.351  11.818  0.00  0.00    -0.273 OA
BRANCH  58  62
ATOM     62  CA  ALA A   2       8.217 -32.326  11.423  0.00  0.00    +0.149 C 
ATOM     63  CB  ALA A   2       8.064 -33.503  10.473  0.00  0.00    +0.031 C 
BRANCH  62  66
ATOM     64  C   VAL A   1       9.773 -31.543  13.124  0.00  0.00    +0.238 C 
ATOM     65  O   VAL A   1       9.209 -30.449  13.183  0.00  0.00    -0.274 OA
ATOM     66  N   ALA A   2       9.361 -32.518  12.315  0.00  0.00    -0.297 N 
ATOM     67  H   ALA A   2       9.860 -33.430  12.317  0.00  0.00    +0.150 HD
BRANCH  64  68
ATOM     68  CA  VAL A   1      10.996 -31.837  14.005  0.00  0.00    +0.145 C 
BRANCH  68  69
ATOM     69  CB  VAL A   1      12.284 -31.712  13.174  0.00  0.00    +0.025 C 
ATOM     70  CG2 VAL A   1      13.509 -31.740  14.082  0.00  0.00    +0.002 C 
ATOM     71  CG1 VAL A   1      12.262 -30.431  12.341  0.00  0.00    +0.002 C 
ENDBRANCH  68  69
BRANCH  68  72
ATOM     72  N   VAL A   1      10.907 -33.144  14.640  0.00  0.00    -0.238 NA
ATOM     73  H   VAL A   1      11.595 -33.880  14.381  0.00  0.00    +0.142 HD
ENDBRANCH  68  72
ENDBRANCH  64  68
ENDBRANCH  62  66
ENDBRANCH  58  62
ENDBRANCH  57  59
BRANCH  57  74
ATOM     74  CB  ARG A   3       5.837 -33.801  15.309  0.00  0.00    +0.033 C 
BRANCH  74  75
ATOM     75  CG  ARG A   3       4.605 -34.057  16.142  0.00  0.00    +0.045 C 
BRANCH  75  76
ATOM     76  CD  ARG A   3       4.906 -35.064  17.269  0.00  0.00    +0.174 C 
BRANCH  76  77
ATOM     77  NE  ARG A   3       5.236 -36.375  16.730  0.00  0.00    -0.265 N 
ATOM     78  CZ  ARG A   3       6.383 -37.015  16.933  0.00  0.00    +0.342 C 
ATOM     79  NH2 ARG A   3       7.332 -36.482  17.689  0.00  0.00    -0.292 N 
ATOM     80 HH21 ARG A   3       7.184 -35.553  18.131  0.00  0.00    +0.255 HD
ATOM     81 HH22 ARG A   3       8.225 -36.993  17.840  0.00  0.00    +0.255 HD
ATOM     82  NH1 ARG A   3       6.573 -38.202  16.384  0.00  0.00    -0.292 N 
ATOM     83 HH11 ARG A   3       7.468 -38.709  16.538  0.00  0.00    +0.255 HD
ATOM     84 HH12 ARG A   3       5.828 -38.629  15.798  0.00  0.00    +0.255 HD
ATOM     85  HE  ARG A   3       4.520 -36.847  16.141  0.00  0.00    +0.259 HD
ENDBRANCH  76  77
ENDBRANCH  75  76
ENDBRANCH  74  75
ENDBRANCH  57  74
ENDBRANCH  53  57
ENDBRANCH  52  54
BRANCH  52  86
ATOM     86  CB  ARG A   4       8.344 -29.320  16.467  0.00  0.00    +0.033 C 
BRANCH  86  87
ATOM     87  CG  ARG A   4       8.581 -27.944  17.050  0.00  0.00    +0.045 C 
BRANCH  87  88
ATOM     88  CD  ARG A   4      10.036 -27.794  17.472  0.00  0.00    +0.174 C 
BRANCH  88  89
ATOM     89  NE  ARG A   4      10.543 -29.024  18.080  0.00  0.00    -0.265 N 
ATOM     90  CZ  ARG A   4      10.256 -29.421  19.315  0.00  0.00    +0.342 C 
ATOM     91  NH2 ARG A   4       9.463 -28.685  20.083  0.00  0.00    -0.292 N 
ATOM     92 HH21 ARG A   4       9.239 -28.997  21.050  0.00  0.00    +0.255 HD
ATOM     93 HH22 ARG A   4       9.065 -27.796  19.718  0.00  0.00    +0.255 HD
ATOM     94  NH1 ARG A   4      10.760 -30.557  19.781  0.00  0.00    -0.292 N 
ATOM     95 HH11 ARG A   4      10.535 -30.868  20.748  0.00  0.00    +0.255 HD
ATOM     96 HH12 ARG A   4      11.380 -31.136  19.179  0.00  0.00    +0.255 HD
ATOM     97  HE  ARG A   4      11.169 -29.627  17.508  0.00  0.00    +0.259 HD
ENDBRANCH  88  89
ENDBRANCH  87  88
ENDBRANCH  86  87
ENDBRANCH  52  86
ENDBRANCH  48  52
ENDBRANCH   1  50
BRANCH   1  98
ATOM     98  CB  LEU A   5       7.459 -28.028  11.351  0.00  0.00    +0.029 C 
BRANCH  98  99
ATOM     99  CG  LEU A   5       7.080 -27.208  10.112  0.00  0.00    +0.002 C 
ATOM    100  CD2 LEU A   5       7.449 -25.743  10.315  0.00  0.00    +0.000 C 
ATOM    101  CD1 LEU A   5       7.749 -27.768   8.857  0.00  0.00    +0.000 C 
ENDBRANCH  98  99
ENDBRANCH   1  98
TORSDOF 41
REMARK  Name = ../refined-set-2016/3tfp/3tfp_pocket.pdb
REMARK  246 active torsions:
REMARK  status: ('A' for Active; 'I' for Inactive)
REMARK    1  A    between atoms: _1  and  _3
REMARK    2  A    between atoms: _3  and  _4
REMARK    3  A    between atoms: _3  and  _6
REMARK    4  A    between atoms: _6  and  _7
REMARK    5  A    between atoms: _10  and  _12
REMARK    6  A    between atoms: _12  and  _13
REMARK    7  A    between atoms: _12  and  _15
REMARK    8  A    between atoms: _15  and  _16
REMARK    9  A    between atoms: _16  and  _17
REMARK   10  A    between atoms: _19  and  _21
REMARK   11  A    between atoms: _21  and  _22
REMARK   12  A    between atoms: _21  and  _24
REMARK   13  A    between atoms: _24  and  _25
REMARK   14  A    between atoms: _30  and  _32
REMARK   15  A    between atoms: _32  and  _33
REMARK   16  A    between atoms: _32  and  _35
REMARK   17  A    between atoms: _35  and  _36
REMARK   18  A    between atoms: _38  and  _40
REMARK   19  A    between atoms: _40  and  _41
REMARK   20  A    between atoms: _40  and  _43
REMARK   21  A    between atoms: _43  and  _44
REMARK   22  A    between atoms: _50  and  _52
REMARK   23  A    between atoms: _52  and  _53
REMARK   24  A    between atoms: _52  and  _55
REMARK   25  A    between atoms: _55  and  _56
REMARK   26  A    between atoms: _58  and  _60
REMARK   27  A    between atoms: _60  and  _61
REMARK   28  A    between atoms: _60  and  _63
REMARK   29  A    between atoms: _63  and  _64
REMARK   30  A    between atoms: _70  and  _72
REMARK   31  A    between atoms: _72  and  _73
REMARK   32  A    between atoms: _76  and  _78
REMARK   33  A    between atoms: _78  and  _79
REMARK   34  A    between atoms: _78  and  _81
REMARK   35  A    between atoms: _84  and  _86
REMARK   36  A    between atoms: _86  and  _87
REMARK   37  A    between atoms: _86  and  _89
REMARK   38  A    between atoms: _89  and  _90
REMARK   39  A    between atoms: _100  and  _102
REMARK   40  A    between atoms: _102  and  _103
REMARK   41  A    between atoms: _106  and  _108
REMARK   42  A    between atoms: _108  and  _109
REMARK   43  A    between atoms: _108  and  _111
REMARK   44  A    between atoms: _111  and  _112
REMARK   45  A    between atoms: _115  and  _117
REMARK   46  A    between atoms: _117  and  _118
REMARK   47  A    between atoms: _117  and  _120
REMARK   48  A    between atoms: _120  and  _121
REMARK   49  A    between atoms: _126  and  _127
REMARK   50  A    between atoms: _129  and  _131
REMARK   51  A    between atoms: _131  and  _132
REMARK   52  A    between atoms: _135  and  _137
REMARK   53  A    between atoms: _137  and  _138
REMARK   54  A    between atoms: _137  and  _140
REMARK   55  A    between atoms: _143  and  _145
REMARK   56  A    between atoms: _145  and  _146
REMARK   57  A    between atoms: _145  and  _148
REMARK   58  A    between atoms: _150  and  _152
REMARK   59  A    between atoms: _152  and  _153
REMARK   60  A    between atoms: _152  and  _155
REMARK   61  A    between atoms: _155  and  _156
REMARK   62  A    between atoms: _156  and  _157
REMARK   63  A    between atoms: _157  and  _158
REMARK   64  A    between atoms: _167  and  _169
REMARK   65  A    between atoms: _169  and  _170
REMARK   66  A    between atoms: _169  and  _172
REMARK   67  A    between atoms: _172  and  _173
REMARK   68  A    between atoms: _173  and  _174
REMARK   69  A    between atoms: _174  and  _175
REMARK   70  A    between atoms: _175  and  _176
REMARK   71  A    between atoms: _180  and  _182
REMARK   72  A    between atoms: _182  and  _183
REMARK   73  A    between atoms: _182  and  _185
REMARK   74  A    between atoms: _185  and  _186
REMARK   75  A    between atoms: _189  and  _191
REMARK   76  A    between atoms: _191  and  _192
REMARK   77  A    between atoms: _191  and  _194
REMARK   78  A    between atoms: _194  and  _195
REMARK   79  A    between atoms: _198  and  _200
REMARK   80  A    between atoms: _200  and  _201
REMARK   81  A    between atoms: _200  and  _203
REMARK   82  A    between atoms: _203  and  _204
REMARK   83  A    between atoms: _207  and  _209
REMARK   84  A    between atoms: _209  and  _210
REMARK   85  A    between atoms: _209  and  _212
REMARK   86  A    between atoms: _212  and  _213
REMARK   87  A    between atoms: _219  and  _221
REMARK   88  A    between atoms: _221  and  _222
REMARK   89  A    between atoms: _221  and  _224
REMARK   90  A    between atoms: _224  and  _225
REMARK   91  A    between atoms: _228  and  _230
REMARK   92  A    between atoms: _230  and  _231
REMARK   93  A    between atoms: _230  and  _233
REMARK   94  A    between atoms: _233  and  _234
REMARK   95  A    between atoms: _237  and  _239
REMARK   96  A    between atoms: _239  and  _240
REMARK   97  A    between atoms: _239  and  _242
REMARK   98  A    between atoms: _242  and  _243
REMARK   99  A    between atoms: _246  and  _248
REMARK  100  A    between atoms: _248  and  _249
REMARK  101  A    between atoms: _248  and  _251
REMARK  102  A    between atoms: _254  and  _256
REMARK  103  A    between atoms: _256  and  _257
REMARK  104  A    between atoms: _256  and  _259
REMARK  105  A    between atoms: _259  and  _260
REMARK  106  A    between atoms: _265  and  _266
REMARK  107  A    between atoms: _268  and  _270
REMARK  108  A    between atoms: _270  and  _271
REMARK  109  A    between atoms: _270  and  _273
REMARK  110  A    between atoms: _275  and  _277
REMARK  111  A    between atoms: _277  and  _278
REMARK  112  A    between atoms: _280  and  _282
REMARK  113  A    between atoms: _282  and  _283
REMARK  114  A    between atoms: _282  and  _285
REMARK  115  A    between atoms: _288  and  _290
REMARK  116  A    between atoms: _290  and  _291
REMARK  117  A    between atoms: _294  and  _296
REMARK  118  A    between atoms: _296  and  _297
REMARK  119  A    between atoms: _299  and  _301
REMARK  120  A    between atoms: _301  and  _302
REMARK  121  A    between atoms: _301  and  _304
REMARK  122  A    between atoms: _304  and  _305
REMARK  123  A    between atoms: _308  and  _310
REMARK  124  A    between atoms: _310  and  _311
REMARK  125  A    between atoms: _310  and  _313
REMARK  126  A    between atoms: _316  and  _318
REMARK  127  A    between atoms: _318  and  _319
REMARK  128  A    between atoms: _321  and  _323
REMARK  129  A    between atoms: _323  and  _324
REMARK  130  A    between atoms: _323  and  _326
REMARK  131  A    between atoms: _326  and  _327
REMARK  132  A    between atoms: _327  and  _328
REMARK  133  A    between atoms: _331  and  _333
REMARK  134  A    between atoms: _333  and  _334
REMARK  135  A    between atoms: _333  and  _336
REMARK  136  A    between atoms: _339  and  _341
REMARK  137  A    between atoms: _341  and  _342
REMARK  138  A    between atoms: _341  and  _344
REMARK  139  A    between atoms: _344  and  _345
REMARK  140  A    between atoms: _348  and  _350
REMARK  141  A    between atoms: _350  and  _351
REMARK  142  A    between atoms: _350  and  _353
REMARK  143  A    between atoms: _353  and  _354
REMARK  144  A    between atoms: _357  and  _359
REMARK  145  A    between atoms: _359  and  _360
REMARK  146  A    between atoms: _359  and  _362
REMARK  147  A    between atoms: _362  and  _363
REMARK  148  A    between atoms: _366  and  _368
REMARK  149  A    between atoms: _368  and  _369
REMARK  150  A    between atoms: _368  and  _371
REMARK  151  A    between atoms: _371  and  _372
REMARK  152  A    between atoms: _377  and  _378
REMARK  153  A    between atoms: _380  and  _382
REMARK  154  A    between atoms: _382  and  _383
REMARK  155  A    between atoms: _382  and  _385
REMARK  156  A    between atoms: _388  and  _390
REMARK  157  A    between atoms: _390  and  _391
REMARK  158  A    between atoms: _394  and  _396
REMARK  159  A    between atoms: _396  and  _397
REMARK  160  A    between atoms: _396  and  _399
REMARK  161  A    between atoms: _399  and  _400
REMARK  162  A    between atoms: _400  and  _401
REMARK  163  A    between atoms: _401  and  _402
REMARK  164  A    between atoms: _411  and  _413
REMARK  165  A    between atoms: _413  and  _414
REMARK  166  A    between atoms: _413  and  _416
REMARK  167  A    between atoms: _416  and  _417
REMARK  168  A    between atoms: _417  and  _418
REMARK  169  A    between atoms: _418  and  _419
REMARK  170  A    between atoms: _428  and  _430
REMARK  171  A    between atoms: _430  and  _431
REMARK  172  A    between atoms: _430  and  _433
REMARK  173  A    between atoms: _433  and  _434
REMARK  174  A    between atoms: _437  and  _439
REMARK  175  A    between atoms: _439  and  _440
REMARK  176  A    between atoms: _442  and  _444
REMARK  177  A    between atoms: _444  and  _445
REMARK  178  A    between atoms: _444  and  _447
REMARK  179  A    between atoms: _447  and  _448
REMARK  180  A    between atoms: _448  and  _449
REMARK  181  A    between atoms: _452  and  _454
REMARK  182  A    between atoms: _454  and  _455
REMARK  183  A    between atoms: _454  and  _457
REMARK  184  A    between atoms: _457  and  _458
REMARK  185  A    between atoms: _460  and  _462
REMARK  186  A    between atoms: _462  and  _463
REMARK  187  A    between atoms: _462  and  _465
REMARK  188  A    between atoms: _465  and  _466
REMARK  189  A    between atoms: _469  and  _471
REMARK  190  A    between atoms: _471  and  _472
REMARK  191  A    between atoms: _471  and  _474
REMARK  192  A    between atoms: _474  and  _475
REMARK  193  A    between atoms: _475  and  _476
REMARK  194  A    between atoms: _481  and  _483
REMARK  195  A    between atoms: _483  and  _484
REMARK  196  A    between atoms: _483  and  _486
REMARK  197  A    between atoms: _486  and  _487
REMARK  198  A    between atoms: _492  and  _494
REMARK  199  A    between atoms: _494  and  _495
REMARK  200  A    between atoms: _494  and  _497
REMARK  201  A    between atoms: _497  and  _498
REMARK  202  A    between atoms: _501  and  _503
REMARK  203  A    between atoms: _503  and  _504
REMARK  204  A    between atoms: _503  and  _506
REMARK  205  A    between atoms: _506  and  _507
REMARK  206  A    between atoms: _507  and  _508
REMARK  207  A    between atoms: _508  and  _509
REMARK  208  A    between atoms: _518  and  _520
REMARK  209  A    between atoms: _520  and  _521
REMARK  210  A    between atoms: _520  and  _523
REMARK  211  A    between atoms: _523  and  _524
REMARK  212  A    between atoms: _527  and  _529
REMARK  213  A    between atoms: _529  and  _530
REMARK  214  A    between atoms: _529  and  _532
REMARK  215  A    between atoms: _532  and  _533
REMARK  216  A    between atoms: _536  and  _538
REMARK  217  A    between atoms: _538  and  _539
REMARK  218  A    between atoms: _538  and  _541
REMARK  219  A    between atoms: _541  and  _542
REMARK  220  A    between atoms: _547  and  _548
REMARK  221  A    between atoms: _550  and  _552
REMARK  222  A    between atoms: _552  and  _553
REMARK  223  A    between atoms: _552  and  _555
REMARK  224  A    between atoms: _558  and  _560
REMARK  225  A    between atoms: _560  and  _561
REMARK  226  A    between atoms: _560  and  _563
REMARK  227  A    between atoms: _563  and  _564
REMARK  228  A    between atoms: _570  and  _572
REMARK  229  A    between atoms: _572  and  _573
REMARK  230  A    between atoms: _572  and  _575
REMARK  231  A    between atoms: _575  and  _576
REMARK  232  A    between atoms: _579  and  _581
REMARK  233  A    between atoms: _581  and  _582
REMARK  234  A    between atoms: _585  and  _587
REMARK  235  A    between atoms: _587  and  _588
REMARK  236  A    between atoms: _591  and  _593
REMARK  237  A    between atoms: _593  and  _594
REMARK  238  A    between atoms: _593  and  _596
REMARK  239  A    between atoms: _596  and  _597
REMARK  240  A    between atoms: _602  and  _603
REMARK  241  A    between atoms: _605  and  _607
REMARK  242  A    between atoms: _607  and  _608
REMARK  243  A    between atoms: _607  and  _610
REMARK  244  A    between atoms: _610  and  _611
REMARK  245  A    between atoms: _611  and  _612
REMARK  246  A    between atoms: _612  and  _613
REMARK                            x       y       z     vdW  Elec       q    Type
REMARK                         _______ _______ _______ _____ _____    ______ ____
ROOT
ATOM      1  C   ASN A   1      -4.280 -19.832  13.082  0.00  0.00    +0.239 C 
ATOM      2  N   ILE A   2      -4.140 -20.329  14.303  0.00  0.00    -0.298 N 
ATOM      3  H   ILE A   2      -3.379 -21.012  14.494  0.00  0.00    +0.150 HD
ATOM      4  O   ASN A   1      -5.146 -19.010  12.795  0.00  0.00    -0.274 OA
ENDROOT
BRANCH   1   5
ATOM      5  CA  ASN A   1      -3.304 -20.359  12.040  0.00  0.00    +0.154 C 
BRANCH   5   6
ATOM      6  N   ASN A   1      -1.950 -20.383  12.597  0.00  0.00    -0.238 NA
ATOM      7  H   ASN A   1      -1.401 -21.266  12.576  0.00  0.00    +0.142 HD
ENDBRANCH   5   6
BRANCH   5   8
ATOM      8  CB  ASN A   1      -3.764 -21.760  11.611  0.00  0.00    +0.111 C 
BRANCH   8   9
ATOM      9  CG  ASN A   1      -3.208 -22.179  10.266  0.00  0.00    +0.221 C 
ATOM     10  ND2 ASN A   1      -3.213 -23.482  10.009  0.00  0.00    -0.329 N 
ATOM     11 HD21 ASN A   1      -3.582 -24.150  10.716  0.00  0.00    +0.145 HD
ATOM     12 HD22 ASN A   1      -2.848 -23.834   9.101  0.00  0.00    +0.145 HD
ATOM     13  OD1 ASN A   1      -2.784 -21.347   9.466  0.00  0.00    -0.275 OA
ENDBRANCH   8   9
ENDBRANCH   5   8
ENDBRANCH   1   5
BRANCH   2  14
ATOM     14  CA  ILE A   2      -5.035 -19.933  15.382  0.00  0.00    +0.137 C 
BRANCH  14  15
ATOM     15  CB  ILE A   2      -4.757 -20.758  16.654  0.00  0.00    +0.026 C 
ATOM     16  CG2 ILE A   2      -5.360 -20.084  17.892  0.00  0.00    +0.002 C 
BRANCH  15  17
ATOM     17  CG1 ILE A   2      -5.331 -22.173  16.486  0.00  0.00    +0.002 C 
ATOM     18  CD1 ILE A   2      -4.720 -23.218  17.429  0.00  0.00    +0.000 C 
ENDBRANCH  15  17
ENDBRANCH  14  15
BRANCH  14  19
ATOM     19  C   ILE A   2      -4.935 -18.432  15.655  0.00  0.00    +0.227 C 
ATOM     20  O   ILE A   2      -5.947 -17.746  15.822  0.00  0.00    -0.286 OA
ENDBRANCH  14  19
ENDBRANCH   2  14
TORSDOF 8
REMARK  Name = ../refined-set-2016/3tfp/3tfp_pocket.pdb
REMARK  246 active torsions:
REMARK  status: ('A' for Active; 'I' for Inactive)
REMARK    1  A    between atoms: _1  and  _3
REMARK    2  A    between atoms: _3  and  _4
REMARK    3  A    between atoms: _3  and  _6
REMARK    4  A    between atoms: _6  and  _7
REMARK    5  A    between atoms: _10  and  _12
REMARK    6  A    between atoms: _12  and  _13
REMARK    7  A    between atoms: _12  and  _15
REMARK    8  A    between atoms: _15  and  _16
REMARK    9  A    between atoms: _16  and  _17
REMARK   10  A    between atoms: _19  and  _21
REMARK   11  A    between atoms: _21  and  _22
REMARK   12  A    between atoms: _21  and  _24
REMARK   13  A    between atoms: _24  and  _25
REMARK   14  A    between atoms: _30  and  _32
REMARK   15  A    between atoms: _32  and  _33
REMARK   16  A    between atoms: _32  and  _35
REMARK   17  A    between atoms: _35  and  _36
REMARK   18  A    between atoms: _38  and  _40
REMARK   19  A    between atoms: _40  and  _41
REMARK   20  A    between atoms: _40  and  _43
REMARK   21  A    between atoms: _43  and  _44
REMARK   22  A    between atoms: _50  and  _52
REMARK   23  A    between atoms: _52  and  _53
REMARK   24  A    between atoms: _52  and  _55
REMARK   25  A    between atoms: _55  and  _56
REMARK   26  A    between atoms: _58  and  _60
REMARK   27  A    between atoms: _60  and  _61
REMARK   28  A    between atoms: _60  and  _63
REMARK   29  A    between atoms: _63  and  _64
REMARK   30  A    between atoms: _70  and  _72
REMARK   31  A    between atoms: _72  and  _73
REMARK   32  A    between atoms: _76  and  _78
REMARK   33  A    between atoms: _78  and  _79
REMARK   34  A    between atoms: _78  and  _81
REMARK   35  A    between atoms: _84  and  _86
REMARK   36  A    between atoms: _86  and  _87
REMARK   37  A    between atoms: _86  and  _89
REMARK   38  A    between atoms: _89  and  _90
REMARK   39  A    between atoms: _100  and  _102
REMARK   40  A    between atoms: _102  and  _103
REMARK   41  A    between atoms: _106  and  _108
REMARK   42  A    between atoms: _108  and  _109
REMARK   43  A    between atoms: _108  and  _111
REMARK   44  A    between atoms: _111  and  _112
REMARK   45  A    between atoms: _115  and  _117
REMARK   46  A    between atoms: _117  and  _118
REMARK   47  A    between atoms: _117  and  _120
REMARK   48  A    between atoms: _120  and  _121
REMARK   49  A    between atoms: _126  and  _127
REMARK   50  A    between atoms: _129  and  _131
REMARK   51  A    between atoms: _131  and  _132
REMARK   52  A    between atoms: _135  and  _137
REMARK   53  A    between atoms: _137  and  _138
REMARK   54  A    between atoms: _137  and  _140
REMARK   55  A    between atoms: _143  and  _145
REMARK   56  A    between atoms: _145  and  _146
REMARK   57  A    between atoms: _145  and  _148
REMARK   58  A    between atoms: _150  and  _152
REMARK   59  A    between atoms: _152  and  _153
REMARK   60  A    between atoms: _152  and  _155
REMARK   61  A    between atoms: _155  and  _156
REMARK   62  A    between atoms: _156  and  _157
REMARK   63  A    between atoms: _157  and  _158
REMARK   64  A    between atoms: _167  and  _169
REMARK   65  A    between atoms: _169  and  _170
REMARK   66  A    between atoms: _169  and  _172
REMARK   67  A    between atoms: _172  and  _173
REMARK   68  A    between atoms: _173  and  _174
REMARK   69  A    between atoms: _174  and  _175
REMARK   70  A    between atoms: _175  and  _176
REMARK   71  A    between atoms: _180  and  _182
REMARK   72  A    between atoms: _182  and  _183
REMARK   73  A    between atoms: _182  and  _185
REMARK   74  A    between atoms: _185  and  _186
REMARK   75  A    between atoms: _189  and  _191
REMARK   76  A    between atoms: _191  and  _192
REMARK   77  A    between atoms: _191  and  _194
REMARK   78  A    between atoms: _194  and  _195
REMARK   79  A    between atoms: _198  and  _200
REMARK   80  A    between atoms: _200  and  _201
REMARK   81  A    between atoms: _200  and  _203
REMARK   82  A    between atoms: _203  and  _204
REMARK   83  A    between atoms: _207  and  _209
REMARK   84  A    between atoms: _209  and  _210
REMARK   85  A    between atoms: _209  and  _212
REMARK   86  A    between atoms: _212  and  _213
REMARK   87  A    between atoms: _219  and  _221
REMARK   88  A    between atoms: _221  and  _222
REMARK   89  A    between atoms: _221  and  _224
REMARK   90  A    between atoms: _224  and  _225
REMARK   91  A    between atoms: _228  and  _230
REMARK   92  A    between atoms: _230  and  _231
REMARK   93  A    between atoms: _230  and  _233
REMARK   94  A    between atoms: _233  and  _234
REMARK   95  A    between atoms: _237  and  _239
REMARK   96  A    between atoms: _239  and  _240
REMARK   97  A    between atoms: _239  and  _242
REMARK   98  A    between atoms: _242  and  _243
REMARK   99  A    between atoms: _246  and  _248
REMARK  100  A    between atoms: _248  and  _249
REMARK  101  A    between atoms: _248  and  _251
REMARK  102  A    between atoms: _254  and  _256
REMARK  103  A    between atoms: _256  and  _257
REMARK  104  A    between atoms: _256  and  _259
REMARK  105  A    between atoms: _259  and  _260
REMARK  106  A    between atoms: _265  and  _266
REMARK  107  A    between atoms: _268  and  _270
REMARK  108  A    between atoms: _270  and  _271
REMARK  109  A    between atoms: _270  and  _273
REMARK  110  A    between atoms: _275  and  _277
REMARK  111  A    between atoms: _277  and  _278
REMARK  112  A    between atoms: _280  and  _282
REMARK  113  A    between atoms: _282  and  _283
REMARK  114  A    between atoms: _282  and  _285
REMARK  115  A    between atoms: _288  and  _290
REMARK  116  A    between atoms: _290  and  _291
REMARK  117  A    between atoms: _294  and  _296
REMARK  118  A    between atoms: _296  and  _297
REMARK  119  A    between atoms: _299  and  _301
REMARK  120  A    between atoms: _301  and  _302
REMARK  121  A    between atoms: _301  and  _304
REMARK  122  A    between atoms: _304  and  _305
REMARK  123  A    between atoms: _308  and  _310
REMARK  124  A    between atoms: _310  and  _311
REMARK  125  A    between atoms: _310  and  _313
REMARK  126  A    between atoms: _316  and  _318
REMARK  127  A    between atoms: _318  and  _319
REMARK  128  A    between atoms: _321  and  _323
REMARK  129  A    between atoms: _323  and  _324
REMARK  130  A    between atoms: _323  and  _326
REMARK  131  A    between atoms: _326  and  _327
REMARK  132  A    between atoms: _327  and  _328
REMARK  133  A    between atoms: _331  and  _333
REMARK  134  A    between atoms: _333  and  _334
REMARK  135  A    between atoms: _333  and  _336
REMARK  136  A    between atoms: _339  and  _341
REMARK  137  A    between atoms: _341  and  _342
REMARK  138  A    between atoms: _341  and  _344
REMARK  139  A    between atoms: _344  and  _345
REMARK  140  A    between atoms: _348  and  _350
REMARK  141  A    between atoms: _350  and  _351
REMARK  142  A    between atoms: _350  and  _353
REMARK  143  A    between atoms: _353  and  _354
REMARK  144  A    between atoms: _357  and  _359
REMARK  145  A    between atoms: _359  and  _360
REMARK  146  A    between atoms: _359  and  _362
REMARK  147  A    between atoms: _362  and  _363
REMARK  148  A    between atoms: _366  and  _368
REMARK  149  A    between atoms: _368  and  _369
REMARK  150  A    between atoms: _368  and  _371
REMARK  151  A    between atoms: _371  and  _372
REMARK  152  A    between atoms: _377  and  _378
REMARK  153  A    between atoms: _380  and  _382
REMARK  154  A    between atoms: _382  and  _383
REMARK  155  A    between atoms: _382  and  _385
REMARK  156  A    between atoms: _388  and  _390
REMARK  157  A    between atoms: _390  and  _391
REMARK  158  A    between atoms: _394  and  _396
REMARK  159  A    between atoms: _396  and  _397
REMARK  160  A    between atoms: _396  and  _399
REMARK  161  A    between atoms: _399  and  _400
REMARK  162  A    between atoms: _400  and  _401
REMARK  163  A    between atoms: _401  and  _402
REMARK  164  A    between atoms: _411  and  _413
REMARK  165  A    between atoms: _413  and  _414
REMARK  166  A    between atoms: _413  and  _416
REMARK  167  A    between atoms: _416  and  _417
REMARK  168  A    between atoms: _417  and  _418
REMARK  169  A    between atoms: _418  and  _419
REMARK  170  A    between atoms: _428  and  _430
REMARK  171  A    between atoms: _430  and  _431
REMARK  172  A    between atoms: _430  and  _433
REMARK  173  A    between atoms: _433  and  _434
REMARK  174  A    between atoms: _437  and  _439
REMARK  175  A    between atoms: _439  and  _440
REMARK  176  A    between atoms: _442  and  _444
REMARK  177  A    between atoms: _444  and  _445
REMARK  178  A    between atoms: _444  and  _447
REMARK  179  A    between atoms: _447  and  _448
REMARK  180  A    between atoms: _448  and  _449
REMARK  181  A    between atoms: _452  and  _454
REMARK  182  A    between atoms: _454  and  _455
REMARK  183  A    between atoms: _454  and  _457
REMARK  184  A    between atoms: _457  and  _458
REMARK  185  A    between atoms: _460  and  _462
REMARK  186  A    between atoms: _462  and  _463
REMARK  187  A    between atoms: _462  and  _465
REMARK  188  A    between atoms: _465  and  _466
REMARK  189  A    between atoms: _469  and  _471
REMARK  190  A    between atoms: _471  and  _472
REMARK  191  A    between atoms: _471  and  _474
REMARK  192  A    between atoms: _474  and  _475
REMARK  193  A    between atoms: _475  and  _476
REMARK  194  A    between atoms: _481  and  _483
REMARK  195  A    between atoms: _483  and  _484
REMARK  196  A    between atoms: _483  and  _486
REMARK  197  A    between atoms: _486  and  _487
REMARK  198  A    between atoms: _492  and  _494
REMARK  199  A    between atoms: _494  and  _495
REMARK  200  A    between atoms: _494  and  _497
REMARK  201  A    between atoms: _497  and  _498
REMARK  202  A    between atoms: _501  and  _503
REMARK  203  A    between atoms: _503  and  _504
REMARK  204  A    between atoms: _503  and  _506
REMARK  205  A    between atoms: _506  and  _507
REMARK  206  A    between atoms: _507  and  _508
REMARK  207  A    between atoms: _508  and  _509
REMARK  208  A    between atoms: _518  and  _520
REMARK  209  A    between atoms: _520  and  _521
REMARK  210  A    between atoms: _520  and  _523
REMARK  211  A    between atoms: _523  and  _524
REMARK  212  A    between atoms: _527  and  _529
REMARK  213  A    between atoms: _529  and  _530
REMARK  214  A    between atoms: _529  and  _532
REMARK  215  A    between atoms: _532  and  _533
REMARK  216  A    between atoms: _536  and  _538
REMARK  217  A    between atoms: _538  and  _539
REMARK  218  A    between atoms: _538  and  _541
REMARK  219  A    between atoms: _541  and  _542
REMARK  220  A    between atoms: _547  and  _548
REMARK  221  A    between atoms: _550  and  _552
REMARK  222  A    between atoms: _552  and  _553
REMARK  223  A    between atoms: _552  and  _555
REMARK  224  A    between atoms: _558  and  _560
REMARK  225  A    between atoms: _560  and  _561
REMARK  226  A    between atoms: _560  and  _563
REMARK  227  A    between atoms: _563  and  _564
REMARK  228  A    between atoms: _570  and  _572
REMARK  229  A    between atoms: _572  and  _573
REMARK  230  A    between atoms: _572  and  _575
REMARK  231  A    between atoms: _575  and  _576
REMARK  232  A    between atoms: _579  and  _581
REMARK  233  A    between atoms: _581  and  _582
REMARK  234  A    between atoms: _585  and  _587
REMARK  235  A    between atoms: _587  and  _588
REMARK  236  A    between atoms: _591  and  _593
REMARK  237  A    between atoms: _593  and  _594
REMARK  238  A    between atoms: _593  and  _596
REMARK  239  A    between atoms: _596  and  _597
REMARK  240  A    between atoms: _602  and  _603
REMARK  241  A    between atoms: _605  and  _607
REMARK  242  A    between atoms: _607  and  _608
REMARK  243  A    between atoms: _607  and  _610
REMARK  244  A    between atoms: _610  and  _611
REMARK  245  A    between atoms: _611  and  _612
REMARK  246  A    between atoms: _612  and  _613
REMARK                            x       y       z     vdW  Elec       q    Type
REMARK                         _______ _______ _______ _____ _____    ______ ____
ROOT
ATOM      1  CA  ARG A   1      -4.449 -15.383  12.499  0.00  0.00    +0.145 C 
ENDROOT
BRANCH   1   2
ATOM      2  C   ARG A   1      -5.977 -15.355  12.467  0.00  0.00    +0.238 C 
ATOM      3  N   ASP A   2      -6.602 -16.426  12.945  0.00  0.00    -0.298 N 
ATOM      4  H   ASP A   2      -6.069 -17.127  13.499  0.00  0.00    +0.150 HD
ATOM      5  O   ARG A   1      -6.580 -14.372  12.025  0.00  0.00    -0.274 OA
BRANCH   3   6
ATOM      6  CA  ASP A   2      -8.026 -16.632  12.703  0.00  0.00    +0.148 C 
BRANCH   6   7
ATOM      7  C   ASP A   2      -8.910 -16.439  13.930  0.00  0.00    +0.227 C 
ATOM      8  O   ASP A   2     -10.050 -16.893  13.931  0.00  0.00    -0.286 OA
ENDBRANCH   6   7
BRANCH   6   9
ATOM      9  CB  ASP A   2      -8.279 -18.034  12.119  0.00  0.00    +0.142 C 
BRANCH   9  10
ATOM     10  CG  ASP A   2      -7.580 -18.250  10.789  0.00  0.00    +0.367 C 
ATOM     11  OD2 ASP A   2      -7.418 -19.420  10.377  0.00  0.00    -0.246 OA
ATOM     12  OD1 ASP A   2      -7.194 -17.249  10.153  0.00  0.00    -0.246 OA
ENDBRANCH   9  10
ENDBRANCH   6   9
ENDBRANCH   3   6
ENDBRANCH   1   2
BRANCH   1  13
ATOM     13  N   ARG A   1      -3.940 -16.136  13.643  0.00  0.00    -0.238 NA
ATOM     14  H   ARG A   1      -3.597 -17.107  13.497  0.00  0.00    +0.142 HD
ENDBRANCH   1  13
BRANCH   1  15
ATOM     15  CB  ARG A   1      -3.916 -15.992  11.197  0.00  0.00    +0.030 C 
BRANCH  15  16
ATOM     16  CG  ARG A   1      -4.344 -15.270   9.913  0.00  0.00    +0.045 C 
BRANCH  16  17
ATOM     17  CD  ARG A   1      -4.119 -16.153   8.681  0.00  0.00    +0.174 C 
BRANCH  17  18
ATOM     18  NE  ARG A   1      -4.992 -17.322   8.730  0.00  0.00    -0.265 N 
ATOM     19  HE  ARG A   1      -5.887 -17.229   9.252  0.00  0.00    +0.259 HD
ATOM     20  CZ  ARG A   1      -4.734 -18.497   8.160  0.00  0.00    +0.342 C 
ATOM     21  NH2 ARG A   1      -5.604 -19.493   8.286  0.00  0.00    -0.292 N 
ATOM     22 HH21 ARG A   1      -6.481 -19.352   8.828  0.00  0.00    +0.255 HD
ATOM     23 HH22 ARG A   1      -5.408 -20.413   7.843  0.00  0.00    +0.255 HD
ATOM     24  NH1 ARG A   1      -3.612 -18.684   7.477  0.00  0.00    -0.292 N 
ATOM     25 HH11 ARG A   1      -2.925 -17.909   7.383  0.00  0.00    +0.255 HD
ATOM     26 HH12 ARG A   1      -3.420 -19.606   7.035  0.00  0.00    +0.255 HD
ENDBRANCH  17  18
ENDBRANCH  16  17
ENDBRANCH  15  16
ENDBRANCH   1  15
TORSDOF 10
REMARK  Name = ../refined-set-2016/3tfp/3tfp_pocket.pdb
REMARK  246 active torsions:
REMARK  status: ('A' for Active; 'I' for Inactive)
REMARK    1  A    between atoms: _1  and  _3
REMARK    2  A    between atoms: _3  and  _4
REMARK    3  A    between atoms: _3  and  _6
REMARK    4  A    between atoms: _6  and  _7
REMARK    5  A    between atoms: _10  and  _12
REMARK    6  A    between atoms: _12  and  _13
REMARK    7  A    between atoms: _12  and  _15
REMARK    8  A    between atoms: _15  and  _16
REMARK    9  A    between atoms: _16  and  _17
REMARK   10  A    between atoms: _19  and  _21
REMARK   11  A    between atoms: _21  and  _22
REMARK   12  A    between atoms: _21  and  _24
REMARK   13  A    between atoms: _24  and  _25
REMARK   14  A    between atoms: _30  and  _32
REMARK   15  A    between atoms: _32  and  _33
REMARK   16  A    between atoms: _32  and  _35
REMARK   17  A    between atoms: _35  and  _36
REMARK   18  A    between atoms: _38  and  _40
REMARK   19  A    between atoms: _40  and  _41
REMARK   20  A    between atoms: _40  and  _43
REMARK   21  A    between atoms: _43  and  _44
REMARK   22  A    between atoms: _50  and  _52
REMARK   23  A    between atoms: _52  and  _53
REMARK   24  A    between atoms: _52  and  _55
REMARK   25  A    between atoms: _55  and  _56
REMARK   26  A    between atoms: _58  and  _60
REMARK   27  A    between atoms: _60  and  _61
REMARK   28  A    between atoms: _60  and  _63
REMARK   29  A    between atoms: _63  and  _64
REMARK   30  A    between atoms: _70  and  _72
REMARK   31  A    between atoms: _72  and  _73
REMARK   32  A    between atoms: _76  and  _78
REMARK   33  A    between atoms: _78  and  _79
REMARK   34  A    between atoms: _78  and  _81
REMARK   35  A    between atoms: _84  and  _86
REMARK   36  A    between atoms: _86  and  _87
REMARK   37  A    between atoms: _86  and  _89
REMARK   38  A    between atoms: _89  and  _90
REMARK   39  A    between atoms: _100  and  _102
REMARK   40  A    between atoms: _102  and  _103
REMARK   41  A    between atoms: _106  and  _108
REMARK   42  A    between atoms: _108  and  _109
REMARK   43  A    between atoms: _108  and  _111
REMARK   44  A    between atoms: _111  and  _112
REMARK   45  A    between atoms: _115  and  _117
REMARK   46  A    between atoms: _117  and  _118
REMARK   47  A    between atoms: _117  and  _120
REMARK   48  A    between atoms: _120  and  _121
REMARK   49  A    between atoms: _126  and  _127
REMARK   50  A    between atoms: _129  and  _131
REMARK   51  A    between atoms: _131  and  _132
REMARK   52  A    between atoms: _135  and  _137
REMARK   53  A    between atoms: _137  and  _138
REMARK   54  A    between atoms: _137  and  _140
REMARK   55  A    between atoms: _143  and  _145
REMARK   56  A    between atoms: _145  and  _146
REMARK   57  A    between atoms: _145  and  _148
REMARK   58  A    between atoms: _150  and  _152
REMARK   59  A    between atoms: _152  and  _153
REMARK   60  A    between atoms: _152  and  _155
REMARK   61  A    between atoms: _155  and  _156
REMARK   62  A    between atoms: _156  and  _157
REMARK   63  A    between atoms: _157  and  _158
REMARK   64  A    between atoms: _167  and  _169
REMARK   65  A    between atoms: _169  and  _170
REMARK   66  A    between atoms: _169  and  _172
REMARK   67  A    between atoms: _172  and  _173
REMARK   68  A    between atoms: _173  and  _174
REMARK   69  A    between atoms: _174  and  _175
REMARK   70  A    between atoms: _175  and  _176
REMARK   71  A    between atoms: _180  and  _182
REMARK   72  A    between atoms: _182  and  _183
REMARK   73  A    between atoms: _182  and  _185
REMARK   74  A    between atoms: _185  and  _186
REMARK   75  A    between atoms: _189  and  _191
REMARK   76  A    between atoms: _191  and  _192
REMARK   77  A    between atoms: _191  and  _194
REMARK   78  A    between atoms: _194  and  _195
REMARK   79  A    between atoms: _198  and  _200
REMARK   80  A    between atoms: _200  and  _201
REMARK   81  A    between atoms: _200  and  _203
REMARK   82  A    between atoms: _203  and  _204
REMARK   83  A    between atoms: _207  and  _209
REMARK   84  A    between atoms: _209  and  _210
REMARK   85  A    between atoms: _209  and  _212
REMARK   86  A    between atoms: _212  and  _213
REMARK   87  A    between atoms: _219  and  _221
REMARK   88  A    between atoms: _221  and  _222
REMARK   89  A    between atoms: _221  and  _224
REMARK   90  A    between atoms: _224  and  _225
REMARK   91  A    between atoms: _228  and  _230
REMARK   92  A    between atoms: _230  and  _231
REMARK   93  A    between atoms: _230  and  _233
REMARK   94  A    between atoms: _233  and  _234
REMARK   95  A    between atoms: _237  and  _239
REMARK   96  A    between atoms: _239  and  _240
REMARK   97  A    between atoms: _239  and  _242
REMARK   98  A    between atoms: _242  and  _243
REMARK   99  A    between atoms: _246  and  _248
REMARK  100  A    between atoms: _248  and  _249
REMARK  101  A    between atoms: _248  and  _251
REMARK  102  A    between atoms: _254  and  _256
REMARK  103  A    between atoms: _256  and  _257
REMARK  104  A    between atoms: _256  and  _259
REMARK  105  A    between atoms: _259  and  _260
REMARK  106  A    between atoms: _265  and  _266
REMARK  107  A    between atoms: _268  and  _270
REMARK  108  A    between atoms: _270  and  _271
REMARK  109  A    between atoms: _270  and  _273
REMARK  110  A    between atoms: _275  and  _277
REMARK  111  A    between atoms: _277  and  _278
REMARK  112  A    between atoms: _280  and  _282
REMARK  113  A    between atoms: _282  and  _283
REMARK  114  A    between atoms: _282  and  _285
REMARK  115  A    between atoms: _288  and  _290
REMARK  116  A    between atoms: _290  and  _291
REMARK  117  A    between atoms: _294  and  _296
REMARK  118  A    between atoms: _296  and  _297
REMARK  119  A    between atoms: _299  and  _301
REMARK  120  A    between atoms: _301  and  _302
REMARK  121  A    between atoms: _301  and  _304
REMARK  122  A    between atoms: _304  and  _305
REMARK  123  A    between atoms: _308  and  _310
REMARK  124  A    between atoms: _310  and  _311
REMARK  125  A    between atoms: _310  and  _313
REMARK  126  A    between atoms: _316  and  _318
REMARK  127  A    between atoms: _318  and  _319
REMARK  128  A    between atoms: _321  and  _323
REMARK  129  A    between atoms: _323  and  _324
REMARK  130  A    between atoms: _323  and  _326
REMARK  131  A    between atoms: _326  and  _327
REMARK  132  A    between atoms: _327  and  _328
REMARK  133  A    between atoms: _331  and  _333
REMARK  134  A    between atoms: _333  and  _334
REMARK  135  A    between atoms: _333  and  _336
REMARK  136  A    between atoms: _339  and  _341
REMARK  137  A    between atoms: _341  and  _342
REMARK  138  A    between atoms: _341  and  _344
REMARK  139  A    between atoms: _344  and  _345
REMARK  140  A    between atoms: _348  and  _350
REMARK  141  A    between atoms: _350  and  _351
REMARK  142  A    between atoms: _350  and  _353
REMARK  143  A    between atoms: _353  and  _354
REMARK  144  A    between atoms: _357  and  _359
REMARK  145  A    between atoms: _359  and  _360
REMARK  146  A    between atoms: _359  and  _362
REMARK  147  A    between atoms: _362  and  _363
REMARK  148  A    between atoms: _366  and  _368
REMARK  149  A    between atoms: _368  and  _369
REMARK  150  A    between atoms: _368  and  _371
REMARK  151  A    between atoms: _371  and  _372
REMARK  152  A    between atoms: _377  and  _378
REMARK  153  A    between atoms: _380  and  _382
REMARK  154  A    between atoms: _382  and  _383
REMARK  155  A    between atoms: _382  and  _385
REMARK  156  A    between atoms: _388  and  _390
REMARK  157  A    between atoms: _390  and  _391
REMARK  158  A    between atoms: _394  and  _396
REMARK  159  A    between atoms: _396  and  _397
REMARK  160  A    between atoms: _396  and  _399
REMARK  161  A    between atoms: _399  and  _400
REMARK  162  A    between atoms: _400  and  _401
REMARK  163  A    between atoms: _401  and  _402
REMARK  164  A    between atoms: _411  and  _413
REMARK  165  A    between atoms: _413  and  _414
REMARK  166  A    between atoms: _413  and  _416
REMARK  167  A    between atoms: _416  and  _417
REMARK  168  A    between atoms: _417  and  _418
REMARK  169  A    between atoms: _418  and  _419
REMARK  170  A    between atoms: _428  and  _430
REMARK  171  A    between atoms: _430  and  _431
REMARK  172  A    between atoms: _430  and  _433
REMARK  173  A    between atoms: _433  and  _434
REMARK  174  A    between atoms: _437  and  _439
REMARK  175  A    between atoms: _439  and  _440
REMARK  176  A    between atoms: _442  and  _444
REMARK  177  A    between atoms: _444  and  _445
REMARK  178  A    between atoms: _444  and  _447
REMARK  179  A    between atoms: _447  and  _448
REMARK  180  A    between atoms: _448  and  _449
REMARK  181  A    between atoms: _452  and  _454
REMARK  182  A    between atoms: _454  and  _455
REMARK  183  A    between atoms: _454  and  _457
REMARK  184  A    between atoms: _457  and  _458
REMARK  185  A    between atoms: _460  and  _462
REMARK  186  A    between atoms: _462  and  _463
REMARK  187  A    between atoms: _462  and  _465
REMARK  188  A    between atoms: _465  and  _466
REMARK  189  A    between atoms: _469  and  _471
REMARK  190  A    between atoms: _471  and  _472
REMARK  191  A    between atoms: _471  and  _474
REMARK  192  A    between atoms: _474  and  _475
REMARK  193  A    between atoms: _475  and  _476
REMARK  194  A    between atoms: _481  and  _483
REMARK  195  A    between atoms: _483  and  _484
REMARK  196  A    between atoms: _483  and  _486
REMARK  197  A    between atoms: _486  and  _487
REMARK  198  A    between atoms: _492  and  _494
REMARK  199  A    between atoms: _494  and  _495
REMARK  200  A    between atoms: _494  and  _497
REMARK  201  A    between atoms: _497  and  _498
REMARK  202  A    between atoms: _501  and  _503
REMARK  203  A    between atoms: _503  and  _504
REMARK  204  A    between atoms: _503  and  _506
REMARK  205  A    between atoms: _506  and  _507
REMARK  206  A    between atoms: _507  and  _508
REMARK  207  A    between atoms: _508  and  _509
REMARK  208  A    between atoms: _518  and  _520
REMARK  209  A    between atoms: _520  and  _521
REMARK  210  A    between atoms: _520  and  _523
REMARK  211  A    between atoms: _523  and  _524
REMARK  212  A    between atoms: _527  and  _529
REMARK  213  A    between atoms: _529  and  _530
REMARK  214  A    between atoms: _529  and  _532
REMARK  215  A    between atoms: _532  and  _533
REMARK  216  A    between atoms: _536  and  _538
REMARK  217  A    between atoms: _538  and  _539
REMARK  218  A    between atoms: _538  and  _541
REMARK  219  A    between atoms: _541  and  _542
REMARK  220  A    between atoms: _547  and  _548
REMARK  221  A    between atoms: _550  and  _552
REMARK  222  A    between atoms: _552  and  _553
REMARK  223  A    between atoms: _552  and  _555
REMARK  224  A    between atoms: _558  and  _560
REMARK  225  A    between atoms: _560  and  _561
REMARK  226  A    between atoms: _560  and  _563
REMARK  227  A    between atoms: _563  and  _564
REMARK  228  A    between atoms: _570  and  _572
REMARK  229  A    between atoms: _572  and  _573
REMARK  230  A    between atoms: _572  and  _575
REMARK  231  A    between atoms: _575  and  _576
REMARK  232  A    between atoms: _579  and  _581
REMARK  233  A    between atoms: _581  and  _582
REMARK  234  A    between atoms: _585  and  _587
REMARK  235  A    between atoms: _587  and  _588
REMARK  236  A    between atoms: _591  and  _593
REMARK  237  A    between atoms: _593  and  _594
REMARK  238  A    between atoms: _593  and  _596
REMARK  239  A    between atoms: _596  and  _597
REMARK  240  A    between atoms: _602  and  _603
REMARK  241  A    between atoms: _605  and  _607
REMARK  242  A    between atoms: _607  and  _608
REMARK  243  A    between atoms: _607  and  _610
REMARK  244  A    between atoms: _610  and  _611
REMARK  245  A    between atoms: _611  and  _612
REMARK  246  A    between atoms: _612  and  _613
REMARK                            x       y       z     vdW  Elec       q    Type
REMARK                         _______ _______ _______ _____ _____    ______ ____
ROOT
ATOM      1  CA  ASP A   1     -13.062 -18.868  14.599  0.00  0.00    +0.144 C 
ENDROOT
BRANCH   1   2
ATOM      2  N   ASP A   1     -12.740 -17.703  13.772  0.00  0.00    -0.239 NA
ATOM      3  H   ASP A   1     -11.794 -17.275  13.827  0.00  0.00    +0.142 HD
ENDBRANCH   1   2
BRANCH   1   4
ATOM      4  C   ASP A   1     -14.163 -18.543  15.609  0.00  0.00    +0.225 C 
ATOM      5  O   ASP A   1     -15.077 -19.348  15.833  0.00  0.00    -0.287 OA
ENDBRANCH   1   4
BRANCH   1   6
ATOM      6  CB  ASP A   1     -11.814 -19.402  15.317  0.00  0.00    +0.139 C 
BRANCH   6   7
ATOM      7  CG  ASP A   1     -10.811 -20.027  14.361  0.00  0.00    +0.367 C 
ATOM      8  OD2 ASP A   1      -9.599 -20.023  14.673  0.00  0.00    -0.246 OA
ATOM      9  OD1 ASP A   1     -11.232 -20.530  13.296  0.00  0.00    -0.246 OA
ENDBRANCH   6   7
ENDBRANCH   1   6
TORSDOF 4
REMARK  Name = ../refined-set-2016/3tfp/3tfp_pocket.pdb
REMARK  246 active torsions:
REMARK  status: ('A' for Active; 'I' for Inactive)
REMARK    1  A    between atoms: _1  and  _3
REMARK    2  A    between atoms: _3  and  _4
REMARK    3  A    between atoms: _3  and  _6
REMARK    4  A    between atoms: _6  and  _7
REMARK    5  A    between atoms: _10  and  _12
REMARK    6  A    between atoms: _12  and  _13
REMARK    7  A    between atoms: _12  and  _15
REMARK    8  A    between atoms: _15  and  _16
REMARK    9  A    between atoms: _16  and  _17
REMARK   10  A    between atoms: _19  and  _21
REMARK   11  A    between atoms: _21  and  _22
REMARK   12  A    between atoms: _21  and  _24
REMARK   13  A    between atoms: _24  and  _25
REMARK   14  A    between atoms: _30  and  _32
REMARK   15  A    between atoms: _32  and  _33
REMARK   16  A    between atoms: _32  and  _35
REMARK   17  A    between atoms: _35  and  _36
REMARK   18  A    between atoms: _38  and  _40
REMARK   19  A    between atoms: _40  and  _41
REMARK   20  A    between atoms: _40  and  _43
REMARK   21  A    between atoms: _43  and  _44
REMARK   22  A    between atoms: _50  and  _52
REMARK   23  A    between atoms: _52  and  _53
REMARK   24  A    between atoms: _52  and  _55
REMARK   25  A    between atoms: _55  and  _56
REMARK   26  A    between atoms: _58  and  _60
REMARK   27  A    between atoms: _60  and  _61
REMARK   28  A    between atoms: _60  and  _63
REMARK   29  A    between atoms: _63  and  _64
REMARK   30  A    between atoms: _70  and  _72
REMARK   31  A    between atoms: _72  and  _73
REMARK   32  A    between atoms: _76  and  _78
REMARK   33  A    between atoms: _78  and  _79
REMARK   34  A    between atoms: _78  and  _81
REMARK   35  A    between atoms: _84  and  _86
REMARK   36  A    between atoms: _86  and  _87
REMARK   37  A    between atoms: _86  and  _89
REMARK   38  A    between atoms: _89  and  _90
REMARK   39  A    between atoms: _100  and  _102
REMARK   40  A    between atoms: _102  and  _103
REMARK   41  A    between atoms: _106  and  _108
REMARK   42  A    between atoms: _108  and  _109
REMARK   43  A    between atoms: _108  and  _111
REMARK   44  A    between atoms: _111  and  _112
REMARK   45  A    between atoms: _115  and  _117
REMARK   46  A    between atoms: _117  and  _118
REMARK   47  A    between atoms: _117  and  _120
REMARK   48  A    between atoms: _120  and  _121
REMARK   49  A    between atoms: _126  and  _127
REMARK   50  A    between atoms: _129  and  _131
REMARK   51  A    between atoms: _131  and  _132
REMARK   52  A    between atoms: _135  and  _137
REMARK   53  A    between atoms: _137  and  _138
REMARK   54  A    between atoms: _137  and  _140
REMARK   55  A    between atoms: _143  and  _145
REMARK   56  A    between atoms: _145  and  _146
REMARK   57  A    between atoms: _145  and  _148
REMARK   58  A    between atoms: _150  and  _152
REMARK   59  A    between atoms: _152  and  _153
REMARK   60  A    between atoms: _152  and  _155
REMARK   61  A    between atoms: _155  and  _156
REMARK   62  A    between atoms: _156  and  _157
REMARK   63  A    between atoms: _157  and  _158
REMARK   64  A    between atoms: _167  and  _169
REMARK   65  A    between atoms: _169  and  _170
REMARK   66  A    between atoms: _169  and  _172
REMARK   67  A    between atoms: _172  and  _173
REMARK   68  A    between atoms: _173  and  _174
REMARK   69  A    between atoms: _174  and  _175
REMARK   70  A    between atoms: _175  and  _176
REMARK   71  A    between atoms: _180  and  _182
REMARK   72  A    between atoms: _182  and  _183
REMARK   73  A    between atoms: _182  and  _185
REMARK   74  A    between atoms: _185  and  _186
REMARK   75  A    between atoms: _189  and  _191
REMARK   76  A    between atoms: _191  and  _192
REMARK   77  A    between atoms: _191  and  _194
REMARK   78  A    between atoms: _194  and  _195
REMARK   79  A    between atoms: _198  and  _200
REMARK   80  A    between atoms: _200  and  _201
REMARK   81  A    between atoms: _200  and  _203
REMARK   82  A    between atoms: _203  and  _204
REMARK   83  A    between atoms: _207  and  _209
REMARK   84  A    between atoms: _209  and  _210
REMARK   85  A    between atoms: _209  and  _212
REMARK   86  A    between atoms: _212  and  _213
REMARK   87  A    between atoms: _219  and  _221
REMARK   88  A    between atoms: _221  and  _222
REMARK   89  A    between atoms: _221  and  _224
REMARK   90  A    between atoms: _224  and  _225
REMARK   91  A    between atoms: _228  and  _230
REMARK   92  A    between atoms: _230  and  _231
REMARK   93  A    between atoms: _230  and  _233
REMARK   94  A    between atoms: _233  and  _234
REMARK   95  A    between atoms: _237  and  _239
REMARK   96  A    between atoms: _239  and  _240
REMARK   97  A    between atoms: _239  and  _242
REMARK   98  A    between atoms: _242  and  _243
REMARK   99  A    between atoms: _246  and  _248
REMARK  100  A    between atoms: _248  and  _249
REMARK  101  A    between atoms: _248  and  _251
REMARK  102  A    between atoms: _254  and  _256
REMARK  103  A    between atoms: _256  and  _257
REMARK  104  A    between atoms: _256  and  _259
REMARK  105  A    between atoms: _259  and  _260
REMARK  106  A    between atoms: _265  and  _266
REMARK  107  A    between atoms: _268  and  _270
REMARK  108  A    between atoms: _270  and  _271
REMARK  109  A    between atoms: _270  and  _273
REMARK  110  A    between atoms: _275  and  _277
REMARK  111  A    between atoms: _277  and  _278
REMARK  112  A    between atoms: _280  and  _282
REMARK  113  A    between atoms: _282  and  _283
REMARK  114  A    between atoms: _282  and  _285
REMARK  115  A    between atoms: _288  and  _290
REMARK  116  A    between atoms: _290  and  _291
REMARK  117  A    between atoms: _294  and  _296
REMARK  118  A    between atoms: _296  and  _297
REMARK  119  A    between atoms: _299  and  _301
REMARK  120  A    between atoms: _301  and  _302
REMARK  121  A    between atoms: _301  and  _304
REMARK  122  A    between atoms: _304  and  _305
REMARK  123  A    between atoms: _308  and  _310
REMARK  124  A    between atoms: _310  and  _311
REMARK  125  A    between atoms: _310  and  _313
REMARK  126  A    between atoms: _316  and  _318
REMARK  127  A    between atoms: _318  and  _319
REMARK  128  A    between atoms: _321  and  _323
REMARK  129  A    between atoms: _323  and  _324
REMARK  130  A    between atoms: _323  and  _326
REMARK  131  A    between atoms: _326  and  _327
REMARK  132  A    between atoms: _327  and  _328
REMARK  133  A    between atoms: _331  and  _333
REMARK  134  A    between atoms: _333  and  _334
REMARK  135  A    between atoms: _333  and  _336
REMARK  136  A    between atoms: _339  and  _341
REMARK  137  A    between atoms: _341  and  _342
REMARK  138  A    between atoms: _341  and  _344
REMARK  139  A    between atoms: _344  and  _345
REMARK  140  A    between atoms: _348  and  _350
REMARK  141  A    between atoms: _350  and  _351
REMARK  142  A    between atoms: _350  and  _353
REMARK  143  A    between atoms: _353  and  _354
REMARK  144  A    between atoms: _357  and  _359
REMARK  145  A    between atoms: _359  and  _360
REMARK  146  A    between atoms: _359  and  _362
REMARK  147  A    between atoms: _362  and  _363
REMARK  148  A    between atoms: _366  and  _368
REMARK  149  A    between atoms: _368  and  _369
REMARK  150  A    between atoms: _368  and  _371
REMARK  151  A    between atoms: _371  and  _372
REMARK  152  A    between atoms: _377  and  _378
REMARK  153  A    between atoms: _380  and  _382
REMARK  154  A    between atoms: _382  and  _383
REMARK  155  A    between atoms: _382  and  _385
REMARK  156  A    between atoms: _388  and  _390
REMARK  157  A    between atoms: _390  and  _391
REMARK  158  A    between atoms: _394  and  _396
REMARK  159  A    between atoms: _396  and  _397
REMARK  160  A    between atoms: _396  and  _399
REMARK  161  A    between atoms: _399  and  _400
REMARK  162  A    between atoms: _400  and  _401
REMARK  163  A    between atoms: _401  and  _402
REMARK  164  A    between atoms: _411  and  _413
REMARK  165  A    between atoms: _413  and  _414
REMARK  166  A    between atoms: _413  and  _416
REMARK  167  A    between atoms: _416  and  _417
REMARK  168  A    between atoms: _417  and  _418
REMARK  169  A    between atoms: _418  and  _419
REMARK  170  A    between atoms: _428  and  _430
REMARK  171  A    between atoms: _430  and  _431
REMARK  172  A    between atoms: _430  and  _433
REMARK  173  A    between atoms: _433  and  _434
REMARK  174  A    between atoms: _437  and  _439
REMARK  175  A    between atoms: _439  and  _440
REMARK  176  A    between atoms: _442  and  _444
REMARK  177  A    between atoms: _444  and  _445
REMARK  178  A    between atoms: _444  and  _447
REMARK  179  A    between atoms: _447  and  _448
REMARK  180  A    between atoms: _448  and  _449
REMARK  181  A    between atoms: _452  and  _454
REMARK  182  A    between atoms: _454  and  _455
REMARK  183  A    between atoms: _454  and  _457
REMARK  184  A    between atoms: _457  and  _458
REMARK  185  A    between atoms: _460  and  _462
REMARK  186  A    between atoms: _462  and  _463
REMARK  187  A    between atoms: _462  and  _465
REMARK  188  A    between atoms: _465  and  _466
REMARK  189  A    between atoms: _469  and  _471
REMARK  190  A    between atoms: _471  and  _472
REMARK  191  A    between atoms: _471  and  _474
REMARK  192  A    between atoms: _474  and  _475
REMARK  193  A    between atoms: _475  and  _476
REMARK  194  A    between atoms: _481  and  _483
REMARK  195  A    between atoms: _483  and  _484
REMARK  196  A    between atoms: _483  and  _486
REMARK  197  A    between atoms: _486  and  _487
REMARK  198  A    between atoms: _492  and  _494
REMARK  199  A    between atoms: _494  and  _495
REMARK  200  A    between atoms: _494  and  _497
REMARK  201  A    between atoms: _497  and  _498
REMARK  202  A    between atoms: _501  and  _503
REMARK  203  A    between atoms: _503  and  _504
REMARK  204  A    between atoms: _503  and  _506
REMARK  205  A    between atoms: _506  and  _507
REMARK  206  A    between atoms: _507  and  _508
REMARK  207  A    between atoms: _508  and  _509
REMARK  208  A    between atoms: _518  and  _520
REMARK  209  A    between atoms: _520  and  _521
REMARK  210  A    between atoms: _520  and  _523
REMARK  211  A    between atoms: _523  and  _524
REMARK  212  A    between atoms: _527  and  _529
REMARK  213  A    between atoms: _529  and  _530
REMARK  214  A    between atoms: _529  and  _532
REMARK  215  A    between atoms: _532  and  _533
REMARK  216  A    between atoms: _536  and  _538
REMARK  217  A    between atoms: _538  and  _539
REMARK  218  A    between atoms: _538  and  _541
REMARK  219  A    between atoms: _541  and  _542
REMARK  220  A    between atoms: _547  and  _548
REMARK  221  A    between atoms: _550  and  _552
REMARK  222  A    between atoms: _552  and  _553
REMARK  223  A    between atoms: _552  and  _555
REMARK  224  A    between atoms: _558  and  _560
REMARK  225  A    between atoms: _560  and  _561
REMARK  226  A    between atoms: _560  and  _563
REMARK  227  A    between atoms: _563  and  _564
REMARK  228  A    between atoms: _570  and  _572
REMARK  229  A    between atoms: _572  and  _573
REMARK  230  A    between atoms: _572  and  _575
REMARK  231  A    between atoms: _575  and  _576
REMARK  232  A    between atoms: _579  and  _581
REMARK  233  A    between atoms: _581  and  _582
REMARK  234  A    between atoms: _585  and  _587
REMARK  235  A    between atoms: _587  and  _588
REMARK  236  A    between atoms: _591  and  _593
REMARK  237  A    between atoms: _593  and  _594
REMARK  238  A    between atoms: _593  and  _596
REMARK  239  A    between atoms: _596  and  _597
REMARK  240  A    between atoms: _602  and  _603
REMARK  241  A    between atoms: _605  and  _607
REMARK  242  A    between atoms: _607  and  _608
REMARK  243  A    between atoms: _607  and  _610
REMARK  244  A    between atoms: _610  and  _611
REMARK  245  A    between atoms: _611  and  _612
REMARK  246  A    between atoms: _612  and  _613
REMARK                            x       y       z     vdW  Elec       q    Type
REMARK                         _______ _______ _______ _____ _____    ______ ____
ROOT
ATOM      1  CG  TYR A   1      -8.896 -23.069  18.498  0.00  0.00    -0.020 A 
ATOM      2  CD2 TYR A   1      -9.228 -24.424  18.586  0.00  0.00    -0.001 A 
ATOM      3  CE2 TYR A   1     -10.064 -25.019  17.653  0.00  0.00    +0.036 A 
ATOM      4  CZ  TYR A   1     -10.584 -24.248  16.623  0.00  0.00    +0.134 A 
ATOM      5  CE1 TYR A   1     -10.276 -22.907  16.529  0.00  0.00    +0.036 A 
ATOM      6  CD1 TYR A   1      -9.442 -22.325  17.463  0.00  0.00    -0.001 A 
ENDROOT
BRANCH   4   7
ATOM      7  OH  TYR A   1     -11.425 -24.802  15.679  0.00  0.00    -0.506 OA
ATOM      8  HH  TYR A   1     -11.552 -25.764  15.876  0.00  0.00    +0.292 HD
ENDBRANCH   4   7
BRANCH   1   9
ATOM      9  CB  TYR A   1      -8.002 -22.417  19.528  0.00  0.00    +0.051 C 
BRANCH   9  10
ATOM     10  CA  TYR A   1      -8.754 -22.154  20.847  0.00  0.00    +0.137 C 
BRANCH  10  11
ATOM     11  N   TYR A   1      -9.821 -21.168  20.653  0.00  0.00    -0.239 NA
ATOM     12  H   TYR A   1      -9.610 -20.275  20.164  0.00  0.00    +0.142 HD
ENDBRANCH  10  11
BRANCH  10  13
ATOM     13  C   TYR A   1      -7.795 -21.809  21.967  0.00  0.00    +0.224 C 
ATOM     14  O   TYR A   1      -7.086 -22.679  22.464  0.00  0.00    -0.287 OA
ENDBRANCH  10  13
ENDBRANCH   9  10
ENDBRANCH   1   9
TORSDOF 5
REMARK  Name = ../refined-set-2016/3tfp/3tfp_pocket.pdb
REMARK  246 active torsions:
REMARK  status: ('A' for Active; 'I' for Inactive)
REMARK    1  A    between atoms: _1  and  _3
REMARK    2  A    between atoms: _3  and  _4
REMARK    3  A    between atoms: _3  and  _6
REMARK    4  A    between atoms: _6  and  _7
REMARK    5  A    between atoms: _10  and  _12
REMARK    6  A    between atoms: _12  and  _13
REMARK    7  A    between atoms: _12  and  _15
REMARK    8  A    between atoms: _15  and  _16
REMARK    9  A    between atoms: _16  and  _17
REMARK   10  A    between atoms: _19  and  _21
REMARK   11  A    between atoms: _21  and  _22
REMARK   12  A    between atoms: _21  and  _24
REMARK   13  A    between atoms: _24  and  _25
REMARK   14  A    between atoms: _30  and  _32
REMARK   15  A    between atoms: _32  and  _33
REMARK   16  A    between atoms: _32  and  _35
REMARK   17  A    between atoms: _35  and  _36
REMARK   18  A    between atoms: _38  and  _40
REMARK   19  A    between atoms: _40  and  _41
REMARK   20  A    between atoms: _40  and  _43
REMARK   21  A    between atoms: _43  and  _44
REMARK   22  A    between atoms: _50  and  _52
REMARK   23  A    between atoms: _52  and  _53
REMARK   24  A    between atoms: _52  and  _55
REMARK   25  A    between atoms: _55  and  _56
REMARK   26  A    between atoms: _58  and  _60
REMARK   27  A    between atoms: _60  and  _61
REMARK   28  A    between atoms: _60  and  _63
REMARK   29  A    between atoms: _63  and  _64
REMARK   30  A    between atoms: _70  and  _72
REMARK   31  A    between atoms: _72  and  _73
REMARK   32  A    between atoms: _76  and  _78
REMARK   33  A    between atoms: _78  and  _79
REMARK   34  A    between atoms: _78  and  _81
REMARK   35  A    between atoms: _84  and  _86
REMARK   36  A    between atoms: _86  and  _87
REMARK   37  A    between atoms: _86  and  _89
REMARK   38  A    between atoms: _89  and  _90
REMARK   39  A    between atoms: _100  and  _102
REMARK   40  A    between atoms: _102  and  _103
REMARK   41  A    between atoms: _106  and  _108
REMARK   42  A    between atoms: _108  and  _109
REMARK   43  A    between atoms: _108  and  _111
REMARK   44  A    between atoms: _111  and  _112
REMARK   45  A    between atoms: _115  and  _117
REMARK   46  A    between atoms: _117  and  _118
REMARK   47  A    between atoms: _117  and  _120
REMARK   48  A    between atoms: _120  and  _121
REMARK   49  A    between atoms: _126  and  _127
REMARK   50  A    between atoms: _129  and  _131
REMARK   51  A    between atoms: _131  and  _132
REMARK   52  A    between atoms: _135  and  _137
REMARK   53  A    between atoms: _137  and  _138
REMARK   54  A    between atoms: _137  and  _140
REMARK   55  A    between atoms: _143  and  _145
REMARK   56  A    between atoms: _145  and  _146
REMARK   57  A    between atoms: _145  and  _148
REMARK   58  A    between atoms: _150  and  _152
REMARK   59  A    between atoms: _152  and  _153
REMARK   60  A    between atoms: _152  and  _155
REMARK   61  A    between atoms: _155  and  _156
REMARK   62  A    between atoms: _156  and  _157
REMARK   63  A    between atoms: _157  and  _158
REMARK   64  A    between atoms: _167  and  _169
REMARK   65  A    between atoms: _169  and  _170
REMARK   66  A    between atoms: _169  and  _172
REMARK   67  A    between atoms: _172  and  _173
REMARK   68  A    between atoms: _173  and  _174
REMARK   69  A    between atoms: _174  and  _175
REMARK   70  A    between atoms: _175  and  _176
REMARK   71  A    between atoms: _180  and  _182
REMARK   72  A    between atoms: _182  and  _183
REMARK   73  A    between atoms: _182  and  _185
REMARK   74  A    between atoms: _185  and  _186
REMARK   75  A    between atoms: _189  and  _191
REMARK   76  A    between atoms: _191  and  _192
REMARK   77  A    between atoms: _191  and  _194
REMARK   78  A    between atoms: _194  and  _195
REMARK   79  A    between atoms: _198  and  _200
REMARK   80  A    between atoms: _200  and  _201
REMARK   81  A    between atoms: _200  and  _203
REMARK   82  A    between atoms: _203  and  _204
REMARK   83  A    between atoms: _207  and  _209
REMARK   84  A    between atoms: _209  and  _210
REMARK   85  A    between atoms: _209  and  _212
REMARK   86  A    between atoms: _212  and  _213
REMARK   87  A    between atoms: _219  and  _221
REMARK   88  A    between atoms: _221  and  _222
REMARK   89  A    between atoms: _221  and  _224
REMARK   90  A    between atoms: _224  and  _225
REMARK   91  A    between atoms: _228  and  _230
REMARK   92  A    between atoms: _230  and  _231
REMARK   93  A    between atoms: _230  and  _233
REMARK   94  A    between atoms: _233  and  _234
REMARK   95  A    between atoms: _237  and  _239
REMARK   96  A    between atoms: _239  and  _240
REMARK   97  A    between atoms: _239  and  _242
REMARK   98  A    between atoms: _242  and  _243
REMARK   99  A    between atoms: _246  and  _248
REMARK  100  A    between atoms: _248  and  _249
REMARK  101  A    between atoms: _248  and  _251
REMARK  102  A    between atoms: _254  and  _256
REMARK  103  A    between atoms: _256  and  _257
REMARK  104  A    between atoms: _256  and  _259
REMARK  105  A    between atoms: _259  and  _260
REMARK  106  A    between atoms: _265  and  _266
REMARK  107  A    between atoms: _268  and  _270
REMARK  108  A    between atoms: _270  and  _271
REMARK  109  A    between atoms: _270  and  _273
REMARK  110  A    between atoms: _275  and  _277
REMARK  111  A    between atoms: _277  and  _278
REMARK  112  A    between atoms: _280  and  _282
REMARK  113  A    between atoms: _282  and  _283
REMARK  114  A    between atoms: _282  and  _285
REMARK  115  A    between atoms: _288  and  _290
REMARK  116  A    between atoms: _290  and  _291
REMARK  117  A    between atoms: _294  and  _296
REMARK  118  A    between atoms: _296  and  _297
REMARK  119  A    between atoms: _299  and  _301
REMARK  120  A    between atoms: _301  and  _302
REMARK  121  A    between atoms: _301  and  _304
REMARK  122  A    between atoms: _304  and  _305
REMARK  123  A    between atoms: _308  and  _310
REMARK  124  A    between atoms: _310  and  _311
REMARK  125  A    between atoms: _310  and  _313
REMARK  126  A    between atoms: _316  and  _318
REMARK  127  A    between atoms: _318  and  _319
REMARK  128  A    between atoms: _321  and  _323
REMARK  129  A    between atoms: _323  and  _324
REMARK  130  A    between atoms: _323  and  _326
REMARK  131  A    between atoms: _326  and  _327
REMARK  132  A    between atoms: _327  and  _328
REMARK  133  A    between atoms: _331  and  _333
REMARK  134  A    between atoms: _333  and  _334
REMARK  135  A    between atoms: _333  and  _336
REMARK  136  A    between atoms: _339  and  _341
REMARK  137  A    between atoms: _341  and  _342
REMARK  138  A    between atoms: _341  and  _344
REMARK  139  A    between atoms: _344  and  _345
REMARK  140  A    between atoms: _348  and  _350
REMARK  141  A    between atoms: _350  and  _351
REMARK  142  A    between atoms: _350  and  _353
REMARK  143  A    between atoms: _353  and  _354
REMARK  144  A    between atoms: _357  and  _359
REMARK  145  A    between atoms: _359  and  _360
REMARK  146  A    between atoms: _359  and  _362
REMARK  147  A    between atoms: _362  and  _363
REMARK  148  A    between atoms: _366  and  _368
REMARK  149  A    between atoms: _368  and  _369
REMARK  150  A    between atoms: _368  and  _371
REMARK  151  A    between atoms: _371  and  _372
REMARK  152  A    between atoms: _377  and  _378
REMARK  153  A    between atoms: _380  and  _382
REMARK  154  A    between atoms: _382  and  _383
REMARK  155  A    between atoms: _382  and  _385
REMARK  156  A    between atoms: _388  and  _390
REMARK  157  A    between atoms: _390  and  _391
REMARK  158  A    between atoms: _394  and  _396
REMARK  159  A    between atoms: _396  and  _397
REMARK  160  A    between atoms: _396  and  _399
REMARK  161  A    between atoms: _399  and  _400
REMARK  162  A    between atoms: _400  and  _401
REMARK  163  A    between atoms: _401  and  _402
REMARK  164  A    between atoms: _411  and  _413
REMARK  165  A    between atoms: _413  and  _414
REMARK  166  A    between atoms: _413  and  _416
REMARK  167  A    between atoms: _416  and  _417
REMARK  168  A    between atoms: _417  and  _418
REMARK  169  A    between atoms: _418  and  _419
REMARK  170  A    between atoms: _428  and  _430
REMARK  171  A    between atoms: _430  and  _431
REMARK  172  A    between atoms: _430  and  _433
REMARK  173  A    between atoms: _433  and  _434
REMARK  174  A    between atoms: _437  and  _439
REMARK  175  A    between atoms: _439  and  _440
REMARK  176  A    between atoms: _442  and  _444
REMARK  177  A    between atoms: _444  and  _445
REMARK  178  A    between atoms: _444  and  _447
REMARK  179  A    between atoms: _447  and  _448
REMARK  180  A    between atoms: _448  and  _449
REMARK  181  A    between atoms: _452  and  _454
REMARK  182  A    between atoms: _454  and  _455
REMARK  183  A    between atoms: _454  and  _457
REMARK  184  A    between atoms: _457  and  _458
REMARK  185  A    between atoms: _460  and  _462
REMARK  186  A    between atoms: _462  and  _463
REMARK  187  A    between atoms: _462  and  _465
REMARK  188  A    between atoms: _465  and  _466
REMARK  189  A    between atoms: _469  and  _471
REMARK  190  A    between atoms: _471  and  _472
REMARK  191  A    between atoms: _471  and  _474
REMARK  192  A    between atoms: _474  and  _475
REMARK  193  A    between atoms: _475  and  _476
REMARK  194  A    between atoms: _481  and  _483
REMARK  195  A    between atoms: _483  and  _484
REMARK  196  A    between atoms: _483  and  _486
REMARK  197  A    between atoms: _486  and  _487
REMARK  198  A    between atoms: _492  and  _494
REMARK  199  A    between atoms: _494  and  _495
REMARK  200  A    between atoms: _494  and  _497
REMARK  201  A    between atoms: _497  and  _498
REMARK  202  A    between atoms: _501  and  _503
REMARK  203  A    between atoms: _503  and  _504
REMARK  204  A    between atoms: _503  and  _506
REMARK  205  A    between atoms: _506  and  _507
REMARK  206  A    between atoms: _507  and  _508
REMARK  207  A    between atoms: _508  and  _509
REMARK  208  A    between atoms: _518  and  _520
REMARK  209  A    between atoms: _520  and  _521
REMARK  210  A    between atoms: _520  and  _523
REMARK  211  A    between atoms: _523  and  _524
REMARK  212  A    between atoms: _527  and  _529
REMARK  213  A    between atoms: _529  and  _530
REMARK  214  A    between atoms: _529  and  _532
REMARK  215  A    between atoms: _532  and  _533
REMARK  216  A    between atoms: _536  and  _538
REMARK  217  A    between atoms: _538  and  _539
REMARK  218  A    between atoms: _538  and  _541
REMARK  219  A    between atoms: _541  and  _542
REMARK  220  A    between atoms: _547  and  _548
REMARK  221  A    between atoms: _550  and  _552
REMARK  222  A    between atoms: _552  and  _553
REMARK  223  A    between atoms: _552  and  _555
REMARK  224  A    between atoms: _558  and  _560
REMARK  225  A    between atoms: _560  and  _561
REMARK  226  A    between atoms: _560  and  _563
REMARK  227  A    between atoms: _563  and  _564
REMARK  228  A    between atoms: _570  and  _572
REMARK  229  A    between atoms: _572  and  _573
REMARK  230  A    between atoms: _572  and  _575
REMARK  231  A    between atoms: _575  and  _576
REMARK  232  A    between atoms: _579  and  _581
REMARK  233  A    between atoms: _581  and  _582
REMARK  234  A    between atoms: _585  and  _587
REMARK  235  A    between atoms: _587  and  _588
REMARK  236  A    between atoms: _591  and  _593
REMARK  237  A    between atoms: _593  and  _594
REMARK  238  A    between atoms: _593  and  _596
REMARK  239  A    between atoms: _596  and  _597
REMARK  240  A    between atoms: _602  and  _603
REMARK  241  A    between atoms: _605  and  _607
REMARK  242  A    between atoms: _607  and  _608
REMARK  243  A    between atoms: _607  and  _610
REMARK  244  A    between atoms: _610  and  _611
REMARK  245  A    between atoms: _611  and  _612
REMARK  246  A    between atoms: _612  and  _613
REMARK                            x       y       z     vdW  Elec       q    Type
REMARK                         _______ _______ _______ _____ _____    ______ ____
ROOT
ATOM      1  CA  VAL A   1      12.769 -26.296  13.748  0.00  0.00    +0.133 C 
ENDROOT
BRANCH   1   2
ATOM      2  CB  VAL A   1      11.386 -26.100  13.085  0.00  0.00    +0.023 C 
ATOM      3  CG2 VAL A   1      10.315 -26.815  13.892  0.00  0.00    +0.002 C 
ATOM      4  CG1 VAL A   1      11.391 -26.583  11.633  0.00  0.00    +0.002 C 
ENDBRANCH   1   2
BRANCH   1   5
ATOM      5  N   VAL A   1      12.855 -25.586  15.021  0.00  0.00    -0.239 NA
ATOM      6  H   VAL A   1      12.083 -24.951  15.308  0.00  0.00    +0.142 HD
ENDBRANCH   1   5
BRANCH   1   7
ATOM      7  C   VAL A   1      13.895 -25.841  12.807  0.00  0.00    +0.224 C 
ATOM      8  O   VAL A   1      14.554 -26.660  12.163  0.00  0.00    -0.287 OA
ENDBRANCH   1   7
TORSDOF 3
REMARK  Name = ../refined-set-2016/3tfp/3tfp_pocket.pdb
REMARK  246 active torsions:
REMARK  status: ('A' for Active; 'I' for Inactive)
REMARK    1  A    between atoms: _1  and  _3
REMARK    2  A    between atoms: _3  and  _4
REMARK    3  A    between atoms: _3  and  _6
REMARK    4  A    between atoms: _6  and  _7
REMARK    5  A    between atoms: _10  and  _12
REMARK    6  A    between atoms: _12  and  _13
REMARK    7  A    between atoms: _12  and  _15
REMARK    8  A    between atoms: _15  and  _16
REMARK    9  A    between atoms: _16  and  _17
REMARK   10  A    between atoms: _19  and  _21
REMARK   11  A    between atoms: _21  and  _22
REMARK   12  A    between atoms: _21  and  _24
REMARK   13  A    between atoms: _24  and  _25
REMARK   14  A    between atoms: _30  and  _32
REMARK   15  A    between atoms: _32  and  _33
REMARK   16  A    between atoms: _32  and  _35
REMARK   17  A    between atoms: _35  and  _36
REMARK   18  A    between atoms: _38  and  _40
REMARK   19  A    between atoms: _40  and  _41
REMARK   20  A    between atoms: _40  and  _43
REMARK   21  A    between atoms: _43  and  _44
REMARK   22  A    between atoms: _50  and  _52
REMARK   23  A    between atoms: _52  and  _53
REMARK   24  A    between atoms: _52  and  _55
REMARK   25  A    between atoms: _55  and  _56
REMARK   26  A    between atoms: _58  and  _60
REMARK   27  A    between atoms: _60  and  _61
REMARK   28  A    between atoms: _60  and  _63
REMARK   29  A    between atoms: _63  and  _64
REMARK   30  A    between atoms: _70  and  _72
REMARK   31  A    between atoms: _72  and  _73
REMARK   32  A    between atoms: _76  and  _78
REMARK   33  A    between atoms: _78  and  _79
REMARK   34  A    between atoms: _78  and  _81
REMARK   35  A    between atoms: _84  and  _86
REMARK   36  A    between atoms: _86  and  _87
REMARK   37  A    between atoms: _86  and  _89
REMARK   38  A    between atoms: _89  and  _90
REMARK   39  A    between atoms: _100  and  _102
REMARK   40  A    between atoms: _102  and  _103
REMARK   41  A    between atoms: _106  and  _108
REMARK   42  A    between atoms: _108  and  _109
REMARK   43  A    between atoms: _108  and  _111
REMARK   44  A    between atoms: _111  and  _112
REMARK   45  A    between atoms: _115  and  _117
REMARK   46  A    between atoms: _117  and  _118
REMARK   47  A    between atoms: _117  and  _120
REMARK   48  A    between atoms: _120  and  _121
REMARK   49  A    between atoms: _126  and  _127
REMARK   50  A    between atoms: _129  and  _131
REMARK   51  A    between atoms: _131  and  _132
REMARK   52  A    between atoms: _135  and  _137
REMARK   53  A    between atoms: _137  and  _138
REMARK   54  A    between atoms: _137  and  _140
REMARK   55  A    between atoms: _143  and  _145
REMARK   56  A    between atoms: _145  and  _146
REMARK   57  A    between atoms: _145  and  _148
REMARK   58  A    between atoms: _150  and  _152
REMARK   59  A    between atoms: _152  and  _153
REMARK   60  A    between atoms: _152  and  _155
REMARK   61  A    between atoms: _155  and  _156
REMARK   62  A    between atoms: _156  and  _157
REMARK   63  A    between atoms: _157  and  _158
REMARK   64  A    between atoms: _167  and  _169
REMARK   65  A    between atoms: _169  and  _170
REMARK   66  A    between atoms: _169  and  _172
REMARK   67  A    between atoms: _172  and  _173
REMARK   68  A    between atoms: _173  and  _174
REMARK   69  A    between atoms: _174  and  _175
REMARK   70  A    between atoms: _175  and  _176
REMARK   71  A    between atoms: _180  and  _182
REMARK   72  A    between atoms: _182  and  _183
REMARK   73  A    between atoms: _182  and  _185
REMARK   74  A    between atoms: _185  and  _186
REMARK   75  A    between atoms: _189  and  _191
REMARK   76  A    between atoms: _191  and  _192
REMARK   77  A    between atoms: _191  and  _194
REMARK   78  A    between atoms: _194  and  _195
REMARK   79  A    between atoms: _198  and  _200
REMARK   80  A    between atoms: _200  and  _201
REMARK   81  A    between atoms: _200  and  _203
REMARK   82  A    between atoms: _203  and  _204
REMARK   83  A    between atoms: _207  and  _209
REMARK   84  A    between atoms: _209  and  _210
REMARK   85  A    between atoms: _209  and  _212
REMARK   86  A    between atoms: _212  and  _213
REMARK   87  A    between atoms: _219  and  _221
REMARK   88  A    between atoms: _221  and  _222
REMARK   89  A    between atoms: _221  and  _224
REMARK   90  A    between atoms: _224  and  _225
REMARK   91  A    between atoms: _228  and  _230
REMARK   92  A    between atoms: _230  and  _231
REMARK   93  A    between atoms: _230  and  _233
REMARK   94  A    between atoms: _233  and  _234
REMARK   95  A    between atoms: _237  and  _239
REMARK   96  A    between atoms: _239  and  _240
REMARK   97  A    between atoms: _239  and  _242
REMARK   98  A    between atoms: _242  and  _243
REMARK   99  A    between atoms: _246  and  _248
REMARK  100  A    between atoms: _248  and  _249
REMARK  101  A    between atoms: _248  and  _251
REMARK  102  A    between atoms: _254  and  _256
REMARK  103  A    between atoms: _256  and  _257
REMARK  104  A    between atoms: _256  and  _259
REMARK  105  A    between atoms: _259  and  _260
REMARK  106  A    between atoms: _265  and  _266
REMARK  107  A    between atoms: _268  and  _270
REMARK  108  A    between atoms: _270  and  _271
REMARK  109  A    between atoms: _270  and  _273
REMARK  110  A    between atoms: _275  and  _277
REMARK  111  A    between atoms: _277  and  _278
REMARK  112  A    between atoms: _280  and  _282
REMARK  113  A    between atoms: _282  and  _283
REMARK  114  A    between atoms: _282  and  _285
REMARK  115  A    between atoms: _288  and  _290
REMARK  116  A    between atoms: _290  and  _291
REMARK  117  A    between atoms: _294  and  _296
REMARK  118  A    between atoms: _296  and  _297
REMARK  119  A    between atoms: _299  and  _301
REMARK  120  A    between atoms: _301  and  _302
REMARK  121  A    between atoms: _301  and  _304
REMARK  122  A    between atoms: _304  and  _305
REMARK  123  A    between atoms: _308  and  _310
REMARK  124  A    between atoms: _310  and  _311
REMARK  125  A    between atoms: _310  and  _313
REMARK  126  A    between atoms: _316  and  _318
REMARK  127  A    between atoms: _318  and  _319
REMARK  128  A    between atoms: _321  and  _323
REMARK  129  A    between atoms: _323  and  _324
REMARK  130  A    between atoms: _323  and  _326
REMARK  131  A    between atoms: _326  and  _327
REMARK  132  A    between atoms: _327  and  _328
REMARK  133  A    between atoms: _331  and  _333
REMARK  134  A    between atoms: _333  and  _334
REMARK  135  A    between atoms: _333  and  _336
REMARK  136  A    between atoms: _339  and  _341
REMARK  137  A    between atoms: _341  and  _342
REMARK  138  A    between atoms: _341  and  _344
REMARK  139  A    between atoms: _344  and  _345
REMARK  140  A    between atoms: _348  and  _350
REMARK  141  A    between atoms: _350  and  _351
REMARK  142  A    between atoms: _350  and  _353
REMARK  143  A    between atoms: _353  and  _354
REMARK  144  A    between atoms: _357  and  _359
REMARK  145  A    between atoms: _359  and  _360
REMARK  146  A    between atoms: _359  and  _362
REMARK  147  A    between atoms: _362  and  _363
REMARK  148  A    between atoms: _366  and  _368
REMARK  149  A    between atoms: _368  and  _369
REMARK  150  A    between atoms: _368  and  _371
REMARK  151  A    between atoms: _371  and  _372
REMARK  152  A    between atoms: _377  and  _378
REMARK  153  A    between atoms: _380  and  _382
REMARK  154  A    between atoms: _382  and  _383
REMARK  155  A    between atoms: _382  and  _385
REMARK  156  A    between atoms: _388  and  _390
REMARK  157  A    between atoms: _390  and  _391
REMARK  158  A    between atoms: _394  and  _396
REMARK  159  A    between atoms: _396  and  _397
REMARK  160  A    between atoms: _396  and  _399
REMARK  161  A    between atoms: _399  and  _400
REMARK  162  A    between atoms: _400  and  _401
REMARK  163  A    between atoms: _401  and  _402
REMARK  164  A    between atoms: _411  and  _413
REMARK  165  A    between atoms: _413  and  _414
REMARK  166  A    between atoms: _413  and  _416
REMARK  167  A    between atoms: _416  and  _417
REMARK  168  A    between atoms: _417  and  _418
REMARK  169  A    between atoms: _418  and  _419
REMARK  170  A    between atoms: _428  and  _430
REMARK  171  A    between atoms: _430  and  _431
REMARK  172  A    between atoms: _430  and  _433
REMARK  173  A    between atoms: _433  and  _434
REMARK  174  A    between atoms: _437  and  _439
REMARK  175  A    between atoms: _439  and  _440
REMARK  176  A    between atoms: _442  and  _444
REMARK  177  A    between atoms: _444  and  _445
REMARK  178  A    between atoms: _444  and  _447
REMARK  179  A    between atoms: _447  and  _448
REMARK  180  A    between atoms: _448  and  _449
REMARK  181  A    between atoms: _452  and  _454
REMARK  182  A    between atoms: _454  and  _455
REMARK  183  A    between atoms: _454  and  _457
REMARK  184  A    between atoms: _457  and  _458
REMARK  185  A    between atoms: _460  and  _462
REMARK  186  A    between atoms: _462  and  _463
REMARK  187  A    between atoms: _462  and  _465
REMARK  188  A    between atoms: _465  and  _466
REMARK  189  A    between atoms: _469  and  _471
REMARK  190  A    between atoms: _471  and  _472
REMARK  191  A    between atoms: _471  and  _474
REMARK  192  A    between atoms: _474  and  _475
REMARK  193  A    between atoms: _475  and  _476
REMARK  194  A    between atoms: _481  and  _483
REMARK  195  A    between atoms: _483  and  _484
REMARK  196  A    between atoms: _483  and  _486
REMARK  197  A    between atoms: _486  and  _487
REMARK  198  A    between atoms: _492  and  _494
REMARK  199  A    between atoms: _494  and  _495
REMARK  200  A    between atoms: _494  and  _497
REMARK  201  A    between atoms: _497  and  _498
REMARK  202  A    between atoms: _501  and  _503
REMARK  203  A    between atoms: _503  and  _504
REMARK  204  A    between atoms: _503  and  _506
REMARK  205  A    between atoms: _506  and  _507
REMARK  206  A    between atoms: _507  and  _508
REMARK  207  A    between atoms: _508  and  _509
REMARK  208  A    between atoms: _518  and  _520
REMARK  209  A    between atoms: _520  and  _521
REMARK  210  A    between atoms: _520  and  _523
REMARK  211  A    between atoms: _523  and  _524
REMARK  212  A    between atoms: _527  and  _529
REMARK  213  A    between atoms: _529  and  _530
REMARK  214  A    between atoms: _529  and  _532
REMARK  215  A    between atoms: _532  and  _533
REMARK  216  A    between atoms: _536  and  _538
REMARK  217  A    between atoms: _538  and  _539
REMARK  218  A    between atoms: _538  and  _541
REMARK  219  A    between atoms: _541  and  _542
REMARK  220  A    between atoms: _547  and  _548
REMARK  221  A    between atoms: _550  and  _552
REMARK  222  A    between atoms: _552  and  _553
REMARK  223  A    between atoms: _552  and  _555
REMARK  224  A    between atoms: _558  and  _560
REMARK  225  A    between atoms: _560  and  _561
REMARK  226  A    between atoms: _560  and  _563
REMARK  227  A    between atoms: _563  and  _564
REMARK  228  A    between atoms: _570  and  _572
REMARK  229  A    between atoms: _572  and  _573
REMARK  230  A    between atoms: _572  and  _575
REMARK  231  A    between atoms: _575  and  _576
REMARK  232  A    between atoms: _579  and  _581
REMARK  233  A    between atoms: _581  and  _582
REMARK  234  A    between atoms: _585  and  _587
REMARK  235  A    between atoms: _587  and  _588
REMARK  236  A    between atoms: _591  and  _593
REMARK  237  A    between atoms: _593  and  _594
REMARK  238  A    between atoms: _593  and  _596
REMARK  239  A    between atoms: _596  and  _597
REMARK  240  A    between atoms: _602  and  _603
REMARK  241  A    between atoms: _605  and  _607
REMARK  242  A    between atoms: _607  and  _608
REMARK  243  A    between atoms: _607  and  _610
REMARK  244  A    between atoms: _610  and  _611
REMARK  245  A    between atoms: _611  and  _612
REMARK  246  A    between atoms: _612  and  _613
REMARK                            x       y       z     vdW  Elec       q    Type
REMARK                         _______ _______ _______ _____ _____    ______ ____
ROOT
ATOM      1  CB  PHE A   1      14.394 -31.811   5.782  0.00  0.00    +0.051 C 
ENDROOT
BRANCH   1   2
ATOM      2  CG  PHE A   1      13.345 -31.687   6.853  0.00  0.00    -0.020 A 
ATOM      3  CD2 PHE A   1      13.323 -30.585   7.698  0.00  0.00    -0.004 A 
ATOM      4  CE2 PHE A   1      12.364 -30.466   8.685  0.00  0.00    -0.000 A 
ATOM      5  CZ  PHE A   1      11.406 -31.457   8.841  0.00  0.00    -0.000 A 
ATOM      6  CE1 PHE A   1      11.415 -32.561   8.008  0.00  0.00    -0.000 A 
ATOM      7  CD1 PHE A   1      12.382 -32.670   7.014  0.00  0.00    -0.004 A 
ENDBRANCH   1   2
BRANCH   1   8
ATOM      8  CA  PHE A   1      15.329 -33.002   5.975  0.00  0.00    +0.137 C 
BRANCH   8   9
ATOM      9  N   PHE A   1      16.056 -32.878   7.234  0.00  0.00    -0.239 NA
ATOM     10  H   PHE A   1      16.376 -31.939   7.547  0.00  0.00    +0.142 HD
ENDBRANCH   8   9
BRANCH   8  11
ATOM     11  C   PHE A   1      16.256 -33.151   4.769  0.00  0.00    +0.224 C 
ATOM     12  O   PHE A   1      17.430 -32.792   4.832  0.00  0.00    -0.287 OA
ENDBRANCH   8  11
ENDBRANCH   1   8
TORSDOF 4
REMARK  Name = ../refined-set-2016/3tfp/3tfp_pocket.pdb
REMARK  246 active torsions:
REMARK  status: ('A' for Active; 'I' for Inactive)
REMARK    1  A    between atoms: _1  and  _3
REMARK    2  A    between atoms: _3  and  _4
REMARK    3  A    between atoms: _3  and  _6
REMARK    4  A    between atoms: _6  and  _7
REMARK    5  A    between atoms: _10  and  _12
REMARK    6  A    between atoms: _12  and  _13
REMARK    7  A    between atoms: _12  and  _15
REMARK    8  A    between atoms: _15  and  _16
REMARK    9  A    between atoms: _16  and  _17
REMARK   10  A    between atoms: _19  and  _21
REMARK   11  A    between atoms: _21  and  _22
REMARK   12  A    between atoms: _21  and  _24
REMARK   13  A    between atoms: _24  and  _25
REMARK   14  A    between atoms: _30  and  _32
REMARK   15  A    between atoms: _32  and  _33
REMARK   16  A    between atoms: _32  and  _35
REMARK   17  A    between atoms: _35  and  _36
REMARK   18  A    between atoms: _38  and  _40
REMARK   19  A    between atoms: _40  and  _41
REMARK   20  A    between atoms: _40  and  _43
REMARK   21  A    between atoms: _43  and  _44
REMARK   22  A    between atoms: _50  and  _52
REMARK   23  A    between atoms: _52  and  _53
REMARK   24  A    between atoms: _52  and  _55
REMARK   25  A    between atoms: _55  and  _56
REMARK   26  A    between atoms: _58  and  _60
REMARK   27  A    between atoms: _60  and  _61
REMARK   28  A    between atoms: _60  and  _63
REMARK   29  A    between atoms: _63  and  _64
REMARK   30  A    between atoms: _70  and  _72
REMARK   31  A    between atoms: _72  and  _73
REMARK   32  A    between atoms: _76  and  _78
REMARK   33  A    between atoms: _78  and  _79
REMARK   34  A    between atoms: _78  and  _81
REMARK   35  A    between atoms: _84  and  _86
REMARK   36  A    between atoms: _86  and  _87
REMARK   37  A    between atoms: _86  and  _89
REMARK   38  A    between atoms: _89  and  _90
REMARK   39  A    between atoms: _100  and  _102
REMARK   40  A    between atoms: _102  and  _103
REMARK   41  A    between atoms: _106  and  _108
REMARK   42  A    between atoms: _108  and  _109
REMARK   43  A    between atoms: _108  and  _111
REMARK   44  A    between atoms: _111  and  _112
REMARK   45  A    between atoms: _115  and  _117
REMARK   46  A    between atoms: _117  and  _118
REMARK   47  A    between atoms: _117  and  _120
REMARK   48  A    between atoms: _120  and  _121
REMARK   49  A    between atoms: _126  and  _127
REMARK   50  A    between atoms: _129  and  _131
REMARK   51  A    between atoms: _131  and  _132
REMARK   52  A    between atoms: _135  and  _137
REMARK   53  A    between atoms: _137  and  _138
REMARK   54  A    between atoms: _137  and  _140
REMARK   55  A    between atoms: _143  and  _145
REMARK   56  A    between atoms: _145  and  _146
REMARK   57  A    between atoms: _145  and  _148
REMARK   58  A    between atoms: _150  and  _152
REMARK   59  A    between atoms: _152  and  _153
REMARK   60  A    between atoms: _152  and  _155
REMARK   61  A    between atoms: _155  and  _156
REMARK   62  A    between atoms: _156  and  _157
REMARK   63  A    between atoms: _157  and  _158
REMARK   64  A    between atoms: _167  and  _169
REMARK   65  A    between atoms: _169  and  _170
REMARK   66  A    between atoms: _169  and  _172
REMARK   67  A    between atoms: _172  and  _173
REMARK   68  A    between atoms: _173  and  _174
REMARK   69  A    between atoms: _174  and  _175
REMARK   70  A    between atoms: _175  and  _176
REMARK   71  A    between atoms: _180  and  _182
REMARK   72  A    between atoms: _182  and  _183
REMARK   73  A    between atoms: _182  and  _185
REMARK   74  A    between atoms: _185  and  _186
REMARK   75  A    between atoms: _189  and  _191
REMARK   76  A    between atoms: _191  and  _192
REMARK   77  A    between atoms: _191  and  _194
REMARK   78  A    between atoms: _194  and  _195
REMARK   79  A    between atoms: _198  and  _200
REMARK   80  A    between atoms: _200  and  _201
REMARK   81  A    between atoms: _200  and  _203
REMARK   82  A    between atoms: _203  and  _204
REMARK   83  A    between atoms: _207  and  _209
REMARK   84  A    between atoms: _209  and  _210
REMARK   85  A    between atoms: _209  and  _212
REMARK   86  A    between atoms: _212  and  _213
REMARK   87  A    between atoms: _219  and  _221
REMARK   88  A    between atoms: _221  and  _222
REMARK   89  A    between atoms: _221  and  _224
REMARK   90  A    between atoms: _224  and  _225
REMARK   91  A    between atoms: _228  and  _230
REMARK   92  A    between atoms: _230  and  _231
REMARK   93  A    between atoms: _230  and  _233
REMARK   94  A    between atoms: _233  and  _234
REMARK   95  A    between atoms: _237  and  _239
REMARK   96  A    between atoms: _239  and  _240
REMARK   97  A    between atoms: _239  and  _242
REMARK   98  A    between atoms: _242  and  _243
REMARK   99  A    between atoms: _246  and  _248
REMARK  100  A    between atoms: _248  and  _249
REMARK  101  A    between atoms: _248  and  _251
REMARK  102  A    between atoms: _254  and  _256
REMARK  103  A    between atoms: _256  and  _257
REMARK  104  A    between atoms: _256  and  _259
REMARK  105  A    between atoms: _259  and  _260
REMARK  106  A    between atoms: _265  and  _266
REMARK  107  A    between atoms: _268  and  _270
REMARK  108  A    between atoms: _270  and  _271
REMARK  109  A    between atoms: _270  and  _273
REMARK  110  A    between atoms: _275  and  _277
REMARK  111  A    between atoms: _277  and  _278
REMARK  112  A    between atoms: _280  and  _282
REMARK  113  A    between atoms: _282  and  _283
REMARK  114  A    between atoms: _282  and  _285
REMARK  115  A    between atoms: _288  and  _290
REMARK  116  A    between atoms: _290  and  _291
REMARK  117  A    between atoms: _294  and  _296
REMARK  118  A    between atoms: _296  and  _297
REMARK  119  A    between atoms: _299  and  _301
REMARK  120  A    between atoms: _301  and  _302
REMARK  121  A    between atoms: _301  and  _304
REMARK  122  A    between atoms: _304  and  _305
REMARK  123  A    between atoms: _308  and  _310
REMARK  124  A    between atoms: _310  and  _311
REMARK  125  A    between atoms: _310  and  _313
REMARK  126  A    between atoms: _316  and  _318
REMARK  127  A    between atoms: _318  and  _319
REMARK  128  A    between atoms: _321  and  _323
REMARK  129  A    between atoms: _323  and  _324
REMARK  130  A    between atoms: _323  and  _326
REMARK  131  A    between atoms: _326  and  _327
REMARK  132  A    between atoms: _327  and  _328
REMARK  133  A    between atoms: _331  and  _333
REMARK  134  A    between atoms: _333  and  _334
REMARK  135  A    between atoms: _333  and  _336
REMARK  136  A    between atoms: _339  and  _341
REMARK  137  A    between atoms: _341  and  _342
REMARK  138  A    between atoms: _341  and  _344
REMARK  139  A    between atoms: _344  and  _345
REMARK  140  A    between atoms: _348  and  _350
REMARK  141  A    between atoms: _350  and  _351
REMARK  142  A    between atoms: _350  and  _353
REMARK  143  A    between atoms: _353  and  _354
REMARK  144  A    between atoms: _357  and  _359
REMARK  145  A    between atoms: _359  and  _360
REMARK  146  A    between atoms: _359  and  _362
REMARK  147  A    between atoms: _362  and  _363
REMARK  148  A    between atoms: _366  and  _368
REMARK  149  A    between atoms: _368  and  _369
REMARK  150  A    between atoms: _368  and  _371
REMARK  151  A    between atoms: _371  and  _372
REMARK  152  A    between atoms: _377  and  _378
REMARK  153  A    between atoms: _380  and  _382
REMARK  154  A    between atoms: _382  and  _383
REMARK  155  A    between atoms: _382  and  _385
REMARK  156  A    between atoms: _388  and  _390
REMARK  157  A    between atoms: _390  and  _391
REMARK  158  A    between atoms: _394  and  _396
REMARK  159  A    between atoms: _396  and  _397
REMARK  160  A    between atoms: _396  and  _399
REMARK  161  A    between atoms: _399  and  _400
REMARK  162  A    between atoms: _400  and  _401
REMARK  163  A    between atoms: _401  and  _402
REMARK  164  A    between atoms: _411  and  _413
REMARK  165  A    between atoms: _413  and  _414
REMARK  166  A    between atoms: _413  and  _416
REMARK  167  A    between atoms: _416  and  _417
REMARK  168  A    between atoms: _417  and  _418
REMARK  169  A    between atoms: _418  and  _419
REMARK  170  A    between atoms: _428  and  _430
REMARK  171  A    between atoms: _430  and  _431
REMARK  172  A    between atoms: _430  and  _433
REMARK  173  A    between atoms: _433  and  _434
REMARK  174  A    between atoms: _437  and  _439
REMARK  175  A    between atoms: _439  and  _440
REMARK  176  A    between atoms: _442  and  _444
REMARK  177  A    between atoms: _444  and  _445
REMARK  178  A    between atoms: _444  and  _447
REMARK  179  A    between atoms: _447  and  _448
REMARK  180  A    between atoms: _448  and  _449
REMARK  181  A    between atoms: _452  and  _454
REMARK  182  A    between atoms: _454  and  _455
REMARK  183  A    between atoms: _454  and  _457
REMARK  184  A    between atoms: _457  and  _458
REMARK  185  A    between atoms: _460  and  _462
REMARK  186  A    between atoms: _462  and  _463
REMARK  187  A    between atoms: _462  and  _465
REMARK  188  A    between atoms: _465  and  _466
REMARK  189  A    between atoms: _469  and  _471
REMARK  190  A    between atoms: _471  and  _472
REMARK  191  A    between atoms: _471  and  _474
REMARK  192  A    between atoms: _474  and  _475
REMARK  193  A    between atoms: _475  and  _476
REMARK  194  A    between atoms: _481  and  _483
REMARK  195  A    between atoms: _483  and  _484
REMARK  196  A    between atoms: _483  and  _486
REMARK  197  A    between atoms: _486  and  _487
REMARK  198  A    between atoms: _492  and  _494
REMARK  199  A    between atoms: _494  and  _495
REMARK  200  A    between atoms: _494  and  _497
REMARK  201  A    between atoms: _497  and  _498
REMARK  202  A    between atoms: _501  and  _503
REMARK  203  A    between atoms: _503  and  _504
REMARK  204  A    between atoms: _503  and  _506
REMARK  205  A    between atoms: _506  and  _507
REMARK  206  A    between atoms: _507  and  _508
REMARK  207  A    between atoms: _508  and  _509
REMARK  208  A    between atoms: _518  and  _520
REMARK  209  A    between atoms: _520  and  _521
REMARK  210  A    between atoms: _520  and  _523
REMARK  211  A    between atoms: _523  and  _524
REMARK  212  A    between atoms: _527  and  _529
REMARK  213  A    between atoms: _529  and  _530
REMARK  214  A    between atoms: _529  and  _532
REMARK  215  A    between atoms: _532  and  _533
REMARK  216  A    between atoms: _536  and  _538
REMARK  217  A    between atoms: _538  and  _539
REMARK  218  A    between atoms: _538  and  _541
REMARK  219  A    between atoms: _541  and  _542
REMARK  220  A    between atoms: _547  and  _548
REMARK  221  A    between atoms: _550  and  _552
REMARK  222  A    between atoms: _552  and  _553
REMARK  223  A    between atoms: _552  and  _555
REMARK  224  A    between atoms: _558  and  _560
REMARK  225  A    between atoms: _560  and  _561
REMARK  226  A    between atoms: _560  and  _563
REMARK  227  A    between atoms: _563  and  _564
REMARK  228  A    between atoms: _570  and  _572
REMARK  229  A    between atoms: _572  and  _573
REMARK  230  A    between atoms: _572  and  _575
REMARK  231  A    between atoms: _575  and  _576
REMARK  232  A    between atoms: _579  and  _581
REMARK  233  A    between atoms: _581  and  _582
REMARK  234  A    between atoms: _585  and  _587
REMARK  235  A    between atoms: _587  and  _588
REMARK  236  A    between atoms: _591  and  _593
REMARK  237  A    between atoms: _593  and  _594
REMARK  238  A    between atoms: _593  and  _596
REMARK  239  A    between atoms: _596  and  _597
REMARK  240  A    between atoms: _602  and  _603
REMARK  241  A    between atoms: _605  and  _607
REMARK  242  A    between atoms: _607  and  _608
REMARK  243  A    between atoms: _607  and  _610
REMARK  244  A    between atoms: _610  and  _611
REMARK  245  A    between atoms: _611  and  _612
REMARK  246  A    between atoms: _612  and  _613
REMARK                            x       y       z     vdW  Elec       q    Type
REMARK                         _______ _______ _______ _____ _____    ______ ____
ROOT
ATOM      1  CA  ILE A   1      10.481 -26.014   4.508  0.00  0.00    +0.133 C 
ENDROOT
BRANCH   1   2
ATOM      2  N   ILE A   1      11.027 -26.029   3.161  0.00  0.00    -0.239 NA
ATOM      3  H   ILE A   1      11.787 -26.698   2.926  0.00  0.00    +0.142 HD
ENDBRANCH   1   2
BRANCH   1   4
ATOM      4  CB  ILE A   1      10.997 -27.213   5.324  0.00  0.00    +0.023 C 
ATOM      5  CG2 ILE A   1      10.579 -27.086   6.774  0.00  0.00    +0.002 C 
BRANCH   4   6
ATOM      6  CG1 ILE A   1      10.471 -28.512   4.708  0.00  0.00    +0.002 C 
ATOM      7  CD1 ILE A   1      11.194 -29.755   5.163  0.00  0.00    +0.000 C 
ENDBRANCH   4   6
ENDBRANCH   1   4
BRANCH   1   8
ATOM      8  C   ILE A   1      10.831 -24.707   5.206  0.00  0.00    +0.224 C 
ATOM      9  O   ILE A   1      10.002 -24.118   5.908  0.00  0.00    -0.287 OA
ENDBRANCH   1   8
TORSDOF 4
REMARK  Name = ../refined-set-2016/3tfp/3tfp_pocket.pdb
REMARK  246 active torsions:
REMARK  status: ('A' for Active; 'I' for Inactive)
REMARK    1  A    between atoms: _1  and  _3
REMARK    2  A    between atoms: _3  and  _4
REMARK    3  A    between atoms: _3  and  _6
REMARK    4  A    between atoms: _6  and  _7
REMARK    5  A    between atoms: _10  and  _12
REMARK    6  A    between atoms: _12  and  _13
REMARK    7  A    between atoms: _12  and  _15
REMARK    8  A    between atoms: _15  and  _16
REMARK    9  A    between atoms: _16  and  _17
REMARK   10  A    between atoms: _19  and  _21
REMARK   11  A    between atoms: _21  and  _22
REMARK   12  A    between atoms: _21  and  _24
REMARK   13  A    between atoms: _24  and  _25
REMARK   14  A    between atoms: _30  and  _32
REMARK   15  A    between atoms: _32  and  _33
REMARK   16  A    between atoms: _32  and  _35
REMARK   17  A    between atoms: _35  and  _36
REMARK   18  A    between atoms: _38  and  _40
REMARK   19  A    between atoms: _40  and  _41
REMARK   20  A    between atoms: _40  and  _43
REMARK   21  A    between atoms: _43  and  _44
REMARK   22  A    between atoms: _50  and  _52
REMARK   23  A    between atoms: _52  and  _53
REMARK   24  A    between atoms: _52  and  _55
REMARK   25  A    between atoms: _55  and  _56
REMARK   26  A    between atoms: _58  and  _60
REMARK   27  A    between atoms: _60  and  _61
REMARK   28  A    between atoms: _60  and  _63
REMARK   29  A    between atoms: _63  and  _64
REMARK   30  A    between atoms: _70  and  _72
REMARK   31  A    between atoms: _72  and  _73
REMARK   32  A    between atoms: _76  and  _78
REMARK   33  A    between atoms: _78  and  _79
REMARK   34  A    between atoms: _78  and  _81
REMARK   35  A    between atoms: _84  and  _86
REMARK   36  A    between atoms: _86  and  _87
REMARK   37  A    between atoms: _86  and  _89
REMARK   38  A    between atoms: _89  and  _90
REMARK   39  A    between atoms: _100  and  _102
REMARK   40  A    between atoms: _102  and  _103
REMARK   41  A    between atoms: _106  and  _108
REMARK   42  A    between atoms: _108  and  _109
REMARK   43  A    between atoms: _108  and  _111
REMARK   44  A    between atoms: _111  and  _112
REMARK   45  A    between atoms: _115  and  _117
REMARK   46  A    between atoms: _117  and  _118
REMARK   47  A    between atoms: _117  and  _120
REMARK   48  A    between atoms: _120  and  _121
REMARK   49  A    between atoms: _126  and  _127
REMARK   50  A    between atoms: _129  and  _131
REMARK   51  A    between atoms: _131  and  _132
REMARK   52  A    between atoms: _135  and  _137
REMARK   53  A    between atoms: _137  and  _138
REMARK   54  A    between atoms: _137  and  _140
REMARK   55  A    between atoms: _143  and  _145
REMARK   56  A    between atoms: _145  and  _146
REMARK   57  A    between atoms: _145  and  _148
REMARK   58  A    between atoms: _150  and  _152
REMARK   59  A    between atoms: _152  and  _153
REMARK   60  A    between atoms: _152  and  _155
REMARK   61  A    between atoms: _155  and  _156
REMARK   62  A    between atoms: _156  and  _157
REMARK   63  A    between atoms: _157  and  _158
REMARK   64  A    between atoms: _167  and  _169
REMARK   65  A    between atoms: _169  and  _170
REMARK   66  A    between atoms: _169  and  _172
REMARK   67  A    between atoms: _172  and  _173
REMARK   68  A    between atoms: _173  and  _174
REMARK   69  A    between atoms: _174  and  _175
REMARK   70  A    between atoms: _175  and  _176
REMARK   71  A    between atoms: _180  and  _182
REMARK   72  A    between atoms: _182  and  _183
REMARK   73  A    between atoms: _182  and  _185
REMARK   74  A    between atoms: _185  and  _186
REMARK   75  A    between atoms: _189  and  _191
REMARK   76  A    between atoms: _191  and  _192
REMARK   77  A    between atoms: _191  and  _194
REMARK   78  A    between atoms: _194  and  _195
REMARK   79  A    between atoms: _198  and  _200
REMARK   80  A    between atoms: _200  and  _201
REMARK   81  A    between atoms: _200  and  _203
REMARK   82  A    between atoms: _203  and  _204
REMARK   83  A    between atoms: _207  and  _209
REMARK   84  A    between atoms: _209  and  _210
REMARK   85  A    between atoms: _209  and  _212
REMARK   86  A    between atoms: _212  and  _213
REMARK   87  A    between atoms: _219  and  _221
REMARK   88  A    between atoms: _221  and  _222
REMARK   89  A    between atoms: _221  and  _224
REMARK   90  A    between atoms: _224  and  _225
REMARK   91  A    between atoms: _228  and  _230
REMARK   92  A    between atoms: _230  and  _231
REMARK   93  A    between atoms: _230  and  _233
REMARK   94  A    between atoms: _233  and  _234
REMARK   95  A    between atoms: _237  and  _239
REMARK   96  A    between atoms: _239  and  _240
REMARK   97  A    between atoms: _239  and  _242
REMARK   98  A    between atoms: _242  and  _243
REMARK   99  A    between atoms: _246  and  _248
REMARK  100  A    between atoms: _248  and  _249
REMARK  101  A    between atoms: _248  and  _251
REMARK  102  A    between atoms: _254  and  _256
REMARK  103  A    between atoms: _256  and  _257
REMARK  104  A    between atoms: _256  and  _259
REMARK  105  A    between atoms: _259  and  _260
REMARK  106  A    between atoms: _265  and  _266
REMARK  107  A    between atoms: _268  and  _270
REMARK  108  A    between atoms: _270  and  _271
REMARK  109  A    between atoms: _270  and  _273
REMARK  110  A    between atoms: _275  and  _277
REMARK  111  A    between atoms: _277  and  _278
REMARK  112  A    between atoms: _280  and  _282
REMARK  113  A    between atoms: _282  and  _283
REMARK  114  A    between atoms: _282  and  _285
REMARK  115  A    between atoms: _288  and  _290
REMARK  116  A    between atoms: _290  and  _291
REMARK  117  A    between atoms: _294  and  _296
REMARK  118  A    between atoms: _296  and  _297
REMARK  119  A    between atoms: _299  and  _301
REMARK  120  A    between atoms: _301  and  _302
REMARK  121  A    between atoms: _301  and  _304
REMARK  122  A    between atoms: _304  and  _305
REMARK  123  A    between atoms: _308  and  _310
REMARK  124  A    between atoms: _310  and  _311
REMARK  125  A    between atoms: _310  and  _313
REMARK  126  A    between atoms: _316  and  _318
REMARK  127  A    between atoms: _318  and  _319
REMARK  128  A    between atoms: _321  and  _323
REMARK  129  A    between atoms: _323  and  _324
REMARK  130  A    between atoms: _323  and  _326
REMARK  131  A    between atoms: _326  and  _327
REMARK  132  A    between atoms: _327  and  _328
REMARK  133  A    between atoms: _331  and  _333
REMARK  134  A    between atoms: _333  and  _334
REMARK  135  A    between atoms: _333  and  _336
REMARK  136  A    between atoms: _339  and  _341
REMARK  137  A    between atoms: _341  and  _342
REMARK  138  A    between atoms: _341  and  _344
REMARK  139  A    between atoms: _344  and  _345
REMARK  140  A    between atoms: _348  and  _350
REMARK  141  A    between atoms: _350  and  _351
REMARK  142  A    between atoms: _350  and  _353
REMARK  143  A    between atoms: _353  and  _354
REMARK  144  A    between atoms: _357  and  _359
REMARK  145  A    between atoms: _359  and  _360
REMARK  146  A    between atoms: _359  and  _362
REMARK  147  A    between atoms: _362  and  _363
REMARK  148  A    between atoms: _366  and  _368
REMARK  149  A    between atoms: _368  and  _369
REMARK  150  A    between atoms: _368  and  _371
REMARK  151  A    between atoms: _371  and  _372
REMARK  152  A    between atoms: _377  and  _378
REMARK  153  A    between atoms: _380  and  _382
REMARK  154  A    between atoms: _382  and  _383
REMARK  155  A    between atoms: _382  and  _385
REMARK  156  A    between atoms: _388  and  _390
REMARK  157  A    between atoms: _390  and  _391
REMARK  158  A    between atoms: _394  and  _396
REMARK  159  A    between atoms: _396  and  _397
REMARK  160  A    between atoms: _396  and  _399
REMARK  161  A    between atoms: _399  and  _400
REMARK  162  A    between atoms: _400  and  _401
REMARK  163  A    between atoms: _401  and  _402
REMARK  164  A    between atoms: _411  and  _413
REMARK  165  A    between atoms: _413  and  _414
REMARK  166  A    between atoms: _413  and  _416
REMARK  167  A    between atoms: _416  and  _417
REMARK  168  A    between atoms: _417  and  _418
REMARK  169  A    between atoms: _418  and  _419
REMARK  170  A    between atoms: _428  and  _430
REMARK  171  A    between atoms: _430  and  _431
REMARK  172  A    between atoms: _430  and  _433
REMARK  173  A    between atoms: _433  and  _434
REMARK  174  A    between atoms: _437  and  _439
REMARK  175  A    between atoms: _439  and  _440
REMARK  176  A    between atoms: _442  and  _444
REMARK  177  A    between atoms: _444  and  _445
REMARK  178  A    between atoms: _444  and  _447
REMARK  179  A    between atoms: _447  and  _448
REMARK  180  A    between atoms: _448  and  _449
REMARK  181  A    between atoms: _452  and  _454
REMARK  182  A    between atoms: _454  and  _455
REMARK  183  A    between atoms: _454  and  _457
REMARK  184  A    between atoms: _457  and  _458
REMARK  185  A    between atoms: _460  and  _462
REMARK  186  A    between atoms: _462  and  _463
REMARK  187  A    between atoms: _462  and  _465
REMARK  188  A    between atoms: _465  and  _466
REMARK  189  A    between atoms: _469  and  _471
REMARK  190  A    between atoms: _471  and  _472
REMARK  191  A    between atoms: _471  and  _474
REMARK  192  A    between atoms: _474  and  _475
REMARK  193  A    between atoms: _475  and  _476
REMARK  194  A    between atoms: _481  and  _483
REMARK  195  A    between atoms: _483  and  _484
REMARK  196  A    between atoms: _483  and  _486
REMARK  197  A    between atoms: _486  and  _487
REMARK  198  A    between atoms: _492  and  _494
REMARK  199  A    between atoms: _494  and  _495
REMARK  200  A    between atoms: _494  and  _497
REMARK  201  A    between atoms: _497  and  _498
REMARK  202  A    between atoms: _501  and  _503
REMARK  203  A    between atoms: _503  and  _504
REMARK  204  A    between atoms: _503  and  _506
REMARK  205  A    between atoms: _506  and  _507
REMARK  206  A    between atoms: _507  and  _508
REMARK  207  A    between atoms: _508  and  _509
REMARK  208  A    between atoms: _518  and  _520
REMARK  209  A    between atoms: _520  and  _521
REMARK  210  A    between atoms: _520  and  _523
REMARK  211  A    between atoms: _523  and  _524
REMARK  212  A    between atoms: _527  and  _529
REMARK  213  A    between atoms: _529  and  _530
REMARK  214  A    between atoms: _529  and  _532
REMARK  215  A    between atoms: _532  and  _533
REMARK  216  A    between atoms: _536  and  _538
REMARK  217  A    between atoms: _538  and  _539
REMARK  218  A    between atoms: _538  and  _541
REMARK  219  A    between atoms: _541  and  _542
REMARK  220  A    between atoms: _547  and  _548
REMARK  221  A    between atoms: _550  and  _552
REMARK  222  A    between atoms: _552  and  _553
REMARK  223  A    between atoms: _552  and  _555
REMARK  224  A    between atoms: _558  and  _560
REMARK  225  A    between atoms: _560  and  _561
REMARK  226  A    between atoms: _560  and  _563
REMARK  227  A    between atoms: _563  and  _564
REMARK  228  A    between atoms: _570  and  _572
REMARK  229  A    between atoms: _572  and  _573
REMARK  230  A    between atoms: _572  and  _575
REMARK  231  A    between atoms: _575  and  _576
REMARK  232  A    between atoms: _579  and  _581
REMARK  233  A    between atoms: _581  and  _582
REMARK  234  A    between atoms: _585  and  _587
REMARK  235  A    between atoms: _587  and  _588
REMARK  236  A    between atoms: _591  and  _593
REMARK  237  A    between atoms: _593  and  _594
REMARK  238  A    between atoms: _593  and  _596
REMARK  239  A    between atoms: _596  and  _597
REMARK  240  A    between atoms: _602  and  _603
REMARK  241  A    between atoms: _605  and  _607
REMARK  242  A    between atoms: _607  and  _608
REMARK  243  A    between atoms: _607  and  _610
REMARK  244  A    between atoms: _610  and  _611
REMARK  245  A    between atoms: _611  and  _612
REMARK  246  A    between atoms: _612  and  _613
REMARK                            x       y       z     vdW  Elec       q    Type
REMARK                         _______ _______ _______ _____ _____    ______ ____
ROOT
ATOM      1  C   ALA A   1       6.933 -21.755   5.670  0.00  0.00    +0.238 C 
ATOM      2  N   ALA A   2       7.965 -22.046   6.450  0.00  0.00    -0.298 N 
ATOM      3  H   ALA A   2       8.754 -22.599   6.060  0.00  0.00    +0.150 HD
ATOM      4  O   ALA A   1       5.997 -21.048   6.032  0.00  0.00    -0.274 OA
ENDROOT
BRANCH   1   5
ATOM      5  CA  ALA A   1       6.979 -22.345   4.273  0.00  0.00    +0.145 C 
ATOM      6  CB  ALA A   1       6.597 -23.825   4.314  0.00  0.00    +0.028 C 
BRANCH   5   7
ATOM      7  N   ALA A   1       8.318 -22.168   3.707  0.00  0.00    -0.238 NA
ATOM      8  H   ALA A   1       8.819 -22.991   3.316  0.00  0.00    +0.142 HD
ENDBRANCH   5   7
ENDBRANCH   1   5
BRANCH   2   9
ATOM      9  CA  ALA A   2       8.022 -21.613   7.833  0.00  0.00    +0.137 C 
ATOM     10  CB  ALA A   2       9.212 -22.248   8.525  0.00  0.00    +0.030 C 
BRANCH   9  11
ATOM     11  C   ALA A   2       8.099 -20.093   7.929  0.00  0.00    +0.227 C 
ATOM     12  O   ALA A   2       7.385 -19.468   8.712  0.00  0.00    -0.286 OA
ENDBRANCH   9  11
ENDBRANCH   2   9
TORSDOF 4
REMARK  Name = ../refined-set-2016/3tfp/3tfp_pocket.pdb
REMARK  246 active torsions:
REMARK  status: ('A' for Active; 'I' for Inactive)
REMARK    1  A    between atoms: _1  and  _3
REMARK    2  A    between atoms: _3  and  _4
REMARK    3  A    between atoms: _3  and  _6
REMARK    4  A    between atoms: _6  and  _7
REMARK    5  A    between atoms: _10  and  _12
REMARK    6  A    between atoms: _12  and  _13
REMARK    7  A    between atoms: _12  and  _15
REMARK    8  A    between atoms: _15  and  _16
REMARK    9  A    between atoms: _16  and  _17
REMARK   10  A    between atoms: _19  and  _21
REMARK   11  A    between atoms: _21  and  _22
REMARK   12  A    between atoms: _21  and  _24
REMARK   13  A    between atoms: _24  and  _25
REMARK   14  A    between atoms: _30  and  _32
REMARK   15  A    between atoms: _32  and  _33
REMARK   16  A    between atoms: _32  and  _35
REMARK   17  A    between atoms: _35  and  _36
REMARK   18  A    between atoms: _38  and  _40
REMARK   19  A    between atoms: _40  and  _41
REMARK   20  A    between atoms: _40  and  _43
REMARK   21  A    between atoms: _43  and  _44
REMARK   22  A    between atoms: _50  and  _52
REMARK   23  A    between atoms: _52  and  _53
REMARK   24  A    between atoms: _52  and  _55
REMARK   25  A    between atoms: _55  and  _56
REMARK   26  A    between atoms: _58  and  _60
REMARK   27  A    between atoms: _60  and  _61
REMARK   28  A    between atoms: _60  and  _63
REMARK   29  A    between atoms: _63  and  _64
REMARK   30  A    between atoms: _70  and  _72
REMARK   31  A    between atoms: _72  and  _73
REMARK   32  A    between atoms: _76  and  _78
REMARK   33  A    between atoms: _78  and  _79
REMARK   34  A    between atoms: _78  and  _81
REMARK   35  A    between atoms: _84  and  _86
REMARK   36  A    between atoms: _86  and  _87
REMARK   37  A    between atoms: _86  and  _89
REMARK   38  A    between atoms: _89  and  _90
REMARK   39  A    between atoms: _100  and  _102
REMARK   40  A    between atoms: _102  and  _103
REMARK   41  A    between atoms: _106  and  _108
REMARK   42  A    between atoms: _108  and  _109
REMARK   43  A    between atoms: _108  and  _111
REMARK   44  A    between atoms: _111  and  _112
REMARK   45  A    between atoms: _115  and  _117
REMARK   46  A    between atoms: _117  and  _118
REMARK   47  A    between atoms: _117  and  _120
REMARK   48  A    between atoms: _120  and  _121
REMARK   49  A    between atoms: _126  and  _127
REMARK   50  A    between atoms: _129  and  _131
REMARK   51  A    between atoms: _131  and  _132
REMARK   52  A    between atoms: _135  and  _137
REMARK   53  A    between atoms: _137  and  _138
REMARK   54  A    between atoms: _137  and  _140
REMARK   55  A    between atoms: _143  and  _145
REMARK   56  A    between atoms: _145  and  _146
REMARK   57  A    between atoms: _145  and  _148
REMARK   58  A    between atoms: _150  and  _152
REMARK   59  A    between atoms: _152  and  _153
REMARK   60  A    between atoms: _152  and  _155
REMARK   61  A    between atoms: _155  and  _156
REMARK   62  A    between atoms: _156  and  _157
REMARK   63  A    between atoms: _157  and  _158
REMARK   64  A    between atoms: _167  and  _169
REMARK   65  A    between atoms: _169  and  _170
REMARK   66  A    between atoms: _169  and  _172
REMARK   67  A    between atoms: _172  and  _173
REMARK   68  A    between atoms: _173  and  _174
REMARK   69  A    between atoms: _174  and  _175
REMARK   70  A    between atoms: _175  and  _176
REMARK   71  A    between atoms: _180  and  _182
REMARK   72  A    between atoms: _182  and  _183
REMARK   73  A    between atoms: _182  and  _185
REMARK   74  A    between atoms: _185  and  _186
REMARK   75  A    between atoms: _189  and  _191
REMARK   76  A    between atoms: _191  and  _192
REMARK   77  A    between atoms: _191  and  _194
REMARK   78  A    between atoms: _194  and  _195
REMARK   79  A    between atoms: _198  and  _200
REMARK   80  A    between atoms: _200  and  _201
REMARK   81  A    between atoms: _200  and  _203
REMARK   82  A    between atoms: _203  and  _204
REMARK   83  A    between atoms: _207  and  _209
REMARK   84  A    between atoms: _209  and  _210
REMARK   85  A    between atoms: _209  and  _212
REMARK   86  A    between atoms: _212  and  _213
REMARK   87  A    between atoms: _219  and  _221
REMARK   88  A    between atoms: _221  and  _222
REMARK   89  A    between atoms: _221  and  _224
REMARK   90  A    between atoms: _224  and  _225
REMARK   91  A    between atoms: _228  and  _230
REMARK   92  A    between atoms: _230  and  _231
REMARK   93  A    between atoms: _230  and  _233
REMARK   94  A    between atoms: _233  and  _234
REMARK   95  A    between atoms: _237  and  _239
REMARK   96  A    between atoms: _239  and  _240
REMARK   97  A    between atoms: _239  and  _242
REMARK   98  A    between atoms: _242  and  _243
REMARK   99  A    between atoms: _246  and  _248
REMARK  100  A    between atoms: _248  and  _249
REMARK  101  A    between atoms: _248  and  _251
REMARK  102  A    between atoms: _254  and  _256
REMARK  103  A    between atoms: _256  and  _257
REMARK  104  A    between atoms: _256  and  _259
REMARK  105  A    between atoms: _259  and  _260
REMARK  106  A    between atoms: _265  and  _266
REMARK  107  A    between atoms: _268  and  _270
REMARK  108  A    between atoms: _270  and  _271
REMARK  109  A    between atoms: _270  and  _273
REMARK  110  A    between atoms: _275  and  _277
REMARK  111  A    between atoms: _277  and  _278
REMARK  112  A    between atoms: _280  and  _282
REMARK  113  A    between atoms: _282  and  _283
REMARK  114  A    between atoms: _282  and  _285
REMARK  115  A    between atoms: _288  and  _290
REMARK  116  A    between atoms: _290  and  _291
REMARK  117  A    between atoms: _294  and  _296
REMARK  118  A    between atoms: _296  and  _297
REMARK  119  A    between atoms: _299  and  _301
REMARK  120  A    between atoms: _301  and  _302
REMARK  121  A    between atoms: _301  and  _304
REMARK  122  A    between atoms: _304  and  _305
REMARK  123  A    between atoms: _308  and  _310
REMARK  124  A    between atoms: _310  and  _311
REMARK  125  A    between atoms: _310  and  _313
REMARK  126  A    between atoms: _316  and  _318
REMARK  127  A    between atoms: _318  and  _319
REMARK  128  A    between atoms: _321  and  _323
REMARK  129  A    between atoms: _323  and  _324
REMARK  130  A    between atoms: _323  and  _326
REMARK  131  A    between atoms: _326  and  _327
REMARK  132  A    between atoms: _327  and  _328
REMARK  133  A    between atoms: _331  and  _333
REMARK  134  A    between atoms: _333  and  _334
REMARK  135  A    between atoms: _333  and  _336
REMARK  136  A    between atoms: _339  and  _341
REMARK  137  A    between atoms: _341  and  _342
REMARK  138  A    between atoms: _341  and  _344
REMARK  139  A    between atoms: _344  and  _345
REMARK  140  A    between atoms: _348  and  _350
REMARK  141  A    between atoms: _350  and  _351
REMARK  142  A    between atoms: _350  and  _353
REMARK  143  A    between atoms: _353  and  _354
REMARK  144  A    between atoms: _357  and  _359
REMARK  145  A    between atoms: _359  and  _360
REMARK  146  A    between atoms: _359  and  _362
REMARK  147  A    between atoms: _362  and  _363
REMARK  148  A    between atoms: _366  and  _368
REMARK  149  A    between atoms: _368  and  _369
REMARK  150  A    between atoms: _368  and  _371
REMARK  151  A    between atoms: _371  and  _372
REMARK  152  A    between atoms: _377  and  _378
REMARK  153  A    between atoms: _380  and  _382
REMARK  154  A    between atoms: _382  and  _383
REMARK  155  A    between atoms: _382  and  _385
REMARK  156  A    between atoms: _388  and  _390
REMARK  157  A    between atoms: _390  and  _391
REMARK  158  A    between atoms: _394  and  _396
REMARK  159  A    between atoms: _396  and  _397
REMARK  160  A    between atoms: _396  and  _399
REMARK  161  A    between atoms: _399  and  _400
REMARK  162  A    between atoms: _400  and  _401
REMARK  163  A    between atoms: _401  and  _402
REMARK  164  A    between atoms: _411  and  _413
REMARK  165  A    between atoms: _413  and  _414
REMARK  166  A    between atoms: _413  and  _416
REMARK  167  A    between atoms: _416  and  _417
REMARK  168  A    between atoms: _417  and  _418
REMARK  169  A    between atoms: _418  and  _419
REMARK  170  A    between atoms: _428  and  _430
REMARK  171  A    between atoms: _430  and  _431
REMARK  172  A    between atoms: _430  and  _433
REMARK  173  A    between atoms: _433  and  _434
REMARK  174  A    between atoms: _437  and  _439
REMARK  175  A    between atoms: _439  and  _440
REMARK  176  A    between atoms: _442  and  _444
REMARK  177  A    between atoms: _444  and  _445
REMARK  178  A    between atoms: _444  and  _447
REMARK  179  A    between atoms: _447  and  _448
REMARK  180  A    between atoms: _448  and  _449
REMARK  181  A    between atoms: _452  and  _454
REMARK  182  A    between atoms: _454  and  _455
REMARK  183  A    between atoms: _454  and  _457
REMARK  184  A    between atoms: _457  and  _458
REMARK  185  A    between atoms: _460  and  _462
REMARK  186  A    between atoms: _462  and  _463
REMARK  187  A    between atoms: _462  and  _465
REMARK  188  A    between atoms: _465  and  _466
REMARK  189  A    between atoms: _469  and  _471
REMARK  190  A    between atoms: _471  and  _472
REMARK  191  A    between atoms: _471  and  _474
REMARK  192  A    between atoms: _474  and  _475
REMARK  193  A    between atoms: _475  and  _476
REMARK  194  A    between atoms: _481  and  _483
REMARK  195  A    between atoms: _483  and  _484
REMARK  196  A    between atoms: _483  and  _486
REMARK  197  A    between atoms: _486  and  _487
REMARK  198  A    between atoms: _492  and  _494
REMARK  199  A    between atoms: _494  and  _495
REMARK  200  A    between atoms: _494  and  _497
REMARK  201  A    between atoms: _497  and  _498
REMARK  202  A    between atoms: _501  and  _503
REMARK  203  A    between atoms: _503  and  _504
REMARK  204  A    between atoms: _503  and  _506
REMARK  205  A    between atoms: _506  and  _507
REMARK  206  A    between atoms: _507  and  _508
REMARK  207  A    between atoms: _508  and  _509
REMARK  208  A    between atoms: _518  and  _520
REMARK  209  A    between atoms: _520  and  _521
REMARK  210  A    between atoms: _520  and  _523
REMARK  211  A    between atoms: _523  and  _524
REMARK  212  A    between atoms: _527  and  _529
REMARK  213  A    between atoms: _529  and  _530
REMARK  214  A    between atoms: _529  and  _532
REMARK  215  A    between atoms: _532  and  _533
REMARK  216  A    between atoms: _536  and  _538
REMARK  217  A    between atoms: _538  and  _539
REMARK  218  A    between atoms: _538  and  _541
REMARK  219  A    between atoms: _541  and  _542
REMARK  220  A    between atoms: _547  and  _548
REMARK  221  A    between atoms: _550  and  _552
REMARK  222  A    between atoms: _552  and  _553
REMARK  223  A    between atoms: _552  and  _555
REMARK  224  A    between atoms: _558  and  _560
REMARK  225  A    between atoms: _560  and  _561
REMARK  226  A    between atoms: _560  and  _563
REMARK  227  A    between atoms: _563  and  _564
REMARK  228  A    between atoms: _570  and  _572
REMARK  229  A    between atoms: _572  and  _573
REMARK  230  A    between atoms: _572  and  _575
REMARK  231  A    between atoms: _575  and  _576
REMARK  232  A    between atoms: _579  and  _581
REMARK  233  A    between atoms: _581  and  _582
REMARK  234  A    between atoms: _585  and  _587
REMARK  235  A    between atoms: _587  and  _588
REMARK  236  A    between atoms: _591  and  _593
REMARK  237  A    between atoms: _593  and  _594
REMARK  238  A    between atoms: _593  and  _596
REMARK  239  A    between atoms: _596  and  _597
REMARK  240  A    between atoms: _602  and  _603
REMARK  241  A    between atoms: _605  and  _607
REMARK  242  A    between atoms: _607  and  _608
REMARK  243  A    between atoms: _607  and  _610
REMARK  244  A    between atoms: _610  and  _611
REMARK  245  A    between atoms: _611  and  _612
REMARK  246  A    between atoms: _612  and  _613
REMARK                            x       y       z     vdW  Elec       q    Type
REMARK                         _______ _______ _______ _____ _____    ______ ____
ROOT
ATOM      1  CG  TYR A   1       2.427 -20.254   8.267  0.00  0.00    -0.020 A 
ATOM      2  CD2 TYR A   1       1.436 -20.548   9.194  0.00  0.00    -0.001 A 
ATOM      3  CE2 TYR A   1       0.194 -20.990   8.797  0.00  0.00    +0.036 A 
ATOM      4  CZ  TYR A   1      -0.087 -21.136   7.458  0.00  0.00    +0.134 A 
ATOM      5  CE1 TYR A   1       0.876 -20.843   6.508  0.00  0.00    +0.036 A 
ATOM      6  CD1 TYR A   1       2.129 -20.403   6.920  0.00  0.00    -0.001 A 
ENDROOT
BRANCH   4   7
ATOM      7  OH  TYR A   1      -1.339 -21.581   7.082  0.00  0.00    -0.506 OA
ATOM      8  HH  TYR A   1      -1.889 -21.738   7.890  0.00  0.00    +0.292 HD
ENDBRANCH   4   7
BRANCH   1   9
ATOM      9  CB  TYR A   1       3.780 -19.749   8.716  0.00  0.00    +0.051 C 
BRANCH   9  10
ATOM     10  CA  TYR A   1       4.038 -18.306   8.267  0.00  0.00    +0.137 C 
BRANCH  10  11
ATOM     11  N   TYR A   1       4.976 -18.252   7.143  0.00  0.00    -0.239 NA
ATOM     12  H   TYR A   1       5.577 -19.073   6.929  0.00  0.00    +0.142 HD
ENDBRANCH  10  11
BRANCH  10  13
ATOM     13  C   TYR A   1       4.458 -17.420   9.436  0.00  0.00    +0.224 C 
ATOM     14  O   TYR A   1       3.615 -16.828  10.109  0.00  0.00    -0.287 OA
ENDBRANCH  10  13
ENDBRANCH   9  10
ENDBRANCH   1   9
TORSDOF 5
REMARK  Name = ../refined-set-2016/3tfp/3tfp_pocket.pdb
REMARK  246 active torsions:
REMARK  status: ('A' for Active; 'I' for Inactive)
REMARK    1  A    between atoms: _1  and  _3
REMARK    2  A    between atoms: _3  and  _4
REMARK    3  A    between atoms: _3  and  _6
REMARK    4  A    between atoms: _6  and  _7
REMARK    5  A    between atoms: _10  and  _12
REMARK    6  A    between atoms: _12  and  _13
REMARK    7  A    between atoms: _12  and  _15
REMARK    8  A    between atoms: _15  and  _16
REMARK    9  A    between atoms: _16  and  _17
REMARK   10  A    between atoms: _19  and  _21
REMARK   11  A    between atoms: _21  and  _22
REMARK   12  A    between atoms: _21  and  _24
REMARK   13  A    between atoms: _24  and  _25
REMARK   14  A    between atoms: _30  and  _32
REMARK   15  A    between atoms: _32  and  _33
REMARK   16  A    between atoms: _32  and  _35
REMARK   17  A    between atoms: _35  and  _36
REMARK   18  A    between atoms: _38  and  _40
REMARK   19  A    between atoms: _40  and  _41
REMARK   20  A    between atoms: _40  and  _43
REMARK   21  A    between atoms: _43  and  _44
REMARK   22  A    between atoms: _50  and  _52
REMARK   23  A    between atoms: _52  and  _53
REMARK   24  A    between atoms: _52  and  _55
REMARK   25  A    between atoms: _55  and  _56
REMARK   26  A    between atoms: _58  and  _60
REMARK   27  A    between atoms: _60  and  _61
REMARK   28  A    between atoms: _60  and  _63
REMARK   29  A    between atoms: _63  and  _64
REMARK   30  A    between atoms: _70  and  _72
REMARK   31  A    between atoms: _72  and  _73
REMARK   32  A    between atoms: _76  and  _78
REMARK   33  A    between atoms: _78  and  _79
REMARK   34  A    between atoms: _78  and  _81
REMARK   35  A    between atoms: _84  and  _86
REMARK   36  A    between atoms: _86  and  _87
REMARK   37  A    between atoms: _86  and  _89
REMARK   38  A    between atoms: _89  and  _90
REMARK   39  A    between atoms: _100  and  _102
REMARK   40  A    between atoms: _102  and  _103
REMARK   41  A    between atoms: _106  and  _108
REMARK   42  A    between atoms: _108  and  _109
REMARK   43  A    between atoms: _108  and  _111
REMARK   44  A    between atoms: _111  and  _112
REMARK   45  A    between atoms: _115  and  _117
REMARK   46  A    between atoms: _117  and  _118
REMARK   47  A    between atoms: _117  and  _120
REMARK   48  A    between atoms: _120  and  _121
REMARK   49  A    between atoms: _126  and  _127
REMARK   50  A    between atoms: _129  and  _131
REMARK   51  A    between atoms: _131  and  _132
REMARK   52  A    between atoms: _135  and  _137
REMARK   53  A    between atoms: _137  and  _138
REMARK   54  A    between atoms: _137  and  _140
REMARK   55  A    between atoms: _143  and  _145
REMARK   56  A    between atoms: _145  and  _146
REMARK   57  A    between atoms: _145  and  _148
REMARK   58  A    between atoms: _150  and  _152
REMARK   59  A    between atoms: _152  and  _153
REMARK   60  A    between atoms: _152  and  _155
REMARK   61  A    between atoms: _155  and  _156
REMARK   62  A    between atoms: _156  and  _157
REMARK   63  A    between atoms: _157  and  _158
REMARK   64  A    between atoms: _167  and  _169
REMARK   65  A    between atoms: _169  and  _170
REMARK   66  A    between atoms: _169  and  _172
REMARK   67  A    between atoms: _172  and  _173
REMARK   68  A    between atoms: _173  and  _174
REMARK   69  A    between atoms: _174  and  _175
REMARK   70  A    between atoms: _175  and  _176
REMARK   71  A    between atoms: _180  and  _182
REMARK   72  A    between atoms: _182  and  _183
REMARK   73  A    between atoms: _182  and  _185
REMARK   74  A    between atoms: _185  and  _186
REMARK   75  A    between atoms: _189  and  _191
REMARK   76  A    between atoms: _191  and  _192
REMARK   77  A    between atoms: _191  and  _194
REMARK   78  A    between atoms: _194  and  _195
REMARK   79  A    between atoms: _198  and  _200
REMARK   80  A    between atoms: _200  and  _201
REMARK   81  A    between atoms: _200  and  _203
REMARK   82  A    between atoms: _203  and  _204
REMARK   83  A    between atoms: _207  and  _209
REMARK   84  A    between atoms: _209  and  _210
REMARK   85  A    between atoms: _209  and  _212
REMARK   86  A    between atoms: _212  and  _213
REMARK   87  A    between atoms: _219  and  _221
REMARK   88  A    between atoms: _221  and  _222
REMARK   89  A    between atoms: _221  and  _224
REMARK   90  A    between atoms: _224  and  _225
REMARK   91  A    between atoms: _228  and  _230
REMARK   92  A    between atoms: _230  and  _231
REMARK   93  A    between atoms: _230  and  _233
REMARK   94  A    between atoms: _233  and  _234
REMARK   95  A    between atoms: _237  and  _239
REMARK   96  A    between atoms: _239  and  _240
REMARK   97  A    between atoms: _239  and  _242
REMARK   98  A    between atoms: _242  and  _243
REMARK   99  A    between atoms: _246  and  _248
REMARK  100  A    between atoms: _248  and  _249
REMARK  101  A    between atoms: _248  and  _251
REMARK  102  A    between atoms: _254  and  _256
REMARK  103  A    between atoms: _256  and  _257
REMARK  104  A    between atoms: _256  and  _259
REMARK  105  A    between atoms: _259  and  _260
REMARK  106  A    between atoms: _265  and  _266
REMARK  107  A    between atoms: _268  and  _270
REMARK  108  A    between atoms: _270  and  _271
REMARK  109  A    between atoms: _270  and  _273
REMARK  110  A    between atoms: _275  and  _277
REMARK  111  A    between atoms: _277  and  _278
REMARK  112  A    between atoms: _280  and  _282
REMARK  113  A    between atoms: _282  and  _283
REMARK  114  A    between atoms: _282  and  _285
REMARK  115  A    between atoms: _288  and  _290
REMARK  116  A    between atoms: _290  and  _291
REMARK  117  A    between atoms: _294  and  _296
REMARK  118  A    between atoms: _296  and  _297
REMARK  119  A    between atoms: _299  and  _301
REMARK  120  A    between atoms: _301  and  _302
REMARK  121  A    between atoms: _301  and  _304
REMARK  122  A    between atoms: _304  and  _305
REMARK  123  A    between atoms: _308  and  _310
REMARK  124  A    between atoms: _310  and  _311
REMARK  125  A    between atoms: _310  and  _313
REMARK  126  A    between atoms: _316  and  _318
REMARK  127  A    between atoms: _318  and  _319
REMARK  128  A    between atoms: _321  and  _323
REMARK  129  A    between atoms: _323  and  _324
REMARK  130  A    between atoms: _323  and  _326
REMARK  131  A    between atoms: _326  and  _327
REMARK  132  A    between atoms: _327  and  _328
REMARK  133  A    between atoms: _331  and  _333
REMARK  134  A    between atoms: _333  and  _334
REMARK  135  A    between atoms: _333  and  _336
REMARK  136  A    between atoms: _339  and  _341
REMARK  137  A    between atoms: _341  and  _342
REMARK  138  A    between atoms: _341  and  _344
REMARK  139  A    between atoms: _344  and  _345
REMARK  140  A    between atoms: _348  and  _350
REMARK  141  A    between atoms: _350  and  _351
REMARK  142  A    between atoms: _350  and  _353
REMARK  143  A    between atoms: _353  and  _354
REMARK  144  A    between atoms: _357  and  _359
REMARK  145  A    between atoms: _359  and  _360
REMARK  146  A    between atoms: _359  and  _362
REMARK  147  A    between atoms: _362  and  _363
REMARK  148  A    between atoms: _366  and  _368
REMARK  149  A    between atoms: _368  and  _369
REMARK  150  A    between atoms: _368  and  _371
REMARK  151  A    between atoms: _371  and  _372
REMARK  152  A    between atoms: _377  and  _378
REMARK  153  A    between atoms: _380  and  _382
REMARK  154  A    between atoms: _382  and  _383
REMARK  155  A    between atoms: _382  and  _385
REMARK  156  A    between atoms: _388  and  _390
REMARK  157  A    between atoms: _390  and  _391
REMARK  158  A    between atoms: _394  and  _396
REMARK  159  A    between atoms: _396  and  _397
REMARK  160  A    between atoms: _396  and  _399
REMARK  161  A    between atoms: _399  and  _400
REMARK  162  A    between atoms: _400  and  _401
REMARK  163  A    between atoms: _401  and  _402
REMARK  164  A    between atoms: _411  and  _413
REMARK  165  A    between atoms: _413  and  _414
REMARK  166  A    between atoms: _413  and  _416
REMARK  167  A    between atoms: _416  and  _417
REMARK  168  A    between atoms: _417  and  _418
REMARK  169  A    between atoms: _418  and  _419
REMARK  170  A    between atoms: _428  and  _430
REMARK  171  A    between atoms: _430  and  _431
REMARK  172  A    between atoms: _430  and  _433
REMARK  173  A    between atoms: _433  and  _434
REMARK  174  A    between atoms: _437  and  _439
REMARK  175  A    between atoms: _439  and  _440
REMARK  176  A    between atoms: _442  and  _444
REMARK  177  A    between atoms: _444  and  _445
REMARK  178  A    between atoms: _444  and  _447
REMARK  179  A    between atoms: _447  and  _448
REMARK  180  A    between atoms: _448  and  _449
REMARK  181  A    between atoms: _452  and  _454
REMARK  182  A    between atoms: _454  and  _455
REMARK  183  A    between atoms: _454  and  _457
REMARK  184  A    between atoms: _457  and  _458
REMARK  185  A    between atoms: _460  and  _462
REMARK  186  A    between atoms: _462  and  _463
REMARK  187  A    between atoms: _462  and  _465
REMARK  188  A    between atoms: _465  and  _466
REMARK  189  A    between atoms: _469  and  _471
REMARK  190  A    between atoms: _471  and  _472
REMARK  191  A    between atoms: _471  and  _474
REMARK  192  A    between atoms: _474  and  _475
REMARK  193  A    between atoms: _475  and  _476
REMARK  194  A    between atoms: _481  and  _483
REMARK  195  A    between atoms: _483  and  _484
REMARK  196  A    between atoms: _483  and  _486
REMARK  197  A    between atoms: _486  and  _487
REMARK  198  A    between atoms: _492  and  _494
REMARK  199  A    between atoms: _494  and  _495
REMARK  200  A    between atoms: _494  and  _497
REMARK  201  A    between atoms: _497  and  _498
REMARK  202  A    between atoms: _501  and  _503
REMARK  203  A    between atoms: _503  and  _504
REMARK  204  A    between atoms: _503  and  _506
REMARK  205  A    between atoms: _506  and  _507
REMARK  206  A    between atoms: _507  and  _508
REMARK  207  A    between atoms: _508  and  _509
REMARK  208  A    between atoms: _518  and  _520
REMARK  209  A    between atoms: _520  and  _521
REMARK  210  A    between atoms: _520  and  _523
REMARK  211  A    between atoms: _523  and  _524
REMARK  212  A    between atoms: _527  and  _529
REMARK  213  A    between atoms: _529  and  _530
REMARK  214  A    between atoms: _529  and  _532
REMARK  215  A    between atoms: _532  and  _533
REMARK  216  A    between atoms: _536  and  _538
REMARK  217  A    between atoms: _538  and  _539
REMARK  218  A    between atoms: _538  and  _541
REMARK  219  A    between atoms: _541  and  _542
REMARK  220  A    between atoms: _547  and  _548
REMARK  221  A    between atoms: _550  and  _552
REMARK  222  A    between atoms: _552  and  _553
REMARK  223  A    between atoms: _552  and  _555
REMARK  224  A    between atoms: _558  and  _560
REMARK  225  A    between atoms: _560  and  _561
REMARK  226  A    between atoms: _560  and  _563
REMARK  227  A    between atoms: _563  and  _564
REMARK  228  A    between atoms: _570  and  _572
REMARK  229  A    between atoms: _572  and  _573
REMARK  230  A    between atoms: _572  and  _575
REMARK  231  A    between atoms: _575  and  _576
REMARK  232  A    between atoms: _579  and  _581
REMARK  233  A    between atoms: _581  and  _582
REMARK  234  A    between atoms: _585  and  _587
REMARK  235  A    between atoms: _587  and  _588
REMARK  236  A    between atoms: _591  and  _593
REMARK  237  A    between atoms: _593  and  _594
REMARK  238  A    between atoms: _593  and  _596
REMARK  239  A    between atoms: _596  and  _597
REMARK  240  A    between atoms: _602  and  _603
REMARK  241  A    between atoms: _605  and  _607
REMARK  242  A    between atoms: _607  and  _608
REMARK  243  A    between atoms: _607  and  _610
REMARK  244  A    between atoms: _610  and  _611
REMARK  245  A    between atoms: _611  and  _612
REMARK  246  A    between atoms: _612  and  _613
REMARK                            x       y       z     vdW  Elec       q    Type
REMARK                         _______ _______ _______ _____ _____    ______ ____
ROOT
ATOM      1  NE  ARG A   1      -7.940 -16.359   6.692  0.00  0.00    -0.265 N 
ATOM      2  HE  ARG A   1      -8.415 -16.063   7.568  0.00  0.00    +0.259 HD
ATOM      3  CZ  ARG A   1      -8.208 -17.569   6.217  0.00  0.00    +0.342 C 
ATOM      4  NH2 ARG A   1      -9.050 -18.366   6.860  0.00  0.00    -0.292 N 
ATOM      5 HH21 ARG A   1      -9.503 -18.044   7.739  0.00  0.00    +0.255 HD
ATOM      6 HH22 ARG A   1      -9.258 -19.314   6.485  0.00  0.00    +0.255 HD
ATOM      7  NH1 ARG A   1      -7.630 -17.984   5.101  0.00  0.00    -0.292 N 
ATOM      8 HH11 ARG A   1      -7.840 -18.932   4.728  0.00  0.00    +0.255 HD
ATOM      9 HH12 ARG A   1      -6.966 -17.362   4.597  0.00  0.00    +0.255 HD
ENDROOT
BRANCH   1  10
ATOM     10  CD  ARG A   1      -7.023 -15.422   6.063  0.00  0.00    +0.174 C 
BRANCH  10  11
ATOM     11  CG  ARG A   1      -7.630 -14.049   5.888  0.00  0.00    +0.045 C 
BRANCH  11  12
ATOM     12  CB  ARG A   1      -8.525 -13.679   7.041  0.00  0.00    +0.029 C 
BRANCH  12  13
ATOM     13  CA  ARG A   1      -8.094 -12.412   7.770  0.00  0.00    +0.133 C 
BRANCH  13  14
ATOM     14  N   ARG A   1      -9.184 -11.457   7.810  0.00  0.00    -0.239 NA
ATOM     15  H   ARG A   1      -9.815 -11.370   6.988  0.00  0.00    +0.142 HD
ENDBRANCH  13  14
BRANCH  13  16
ATOM     16  C   ARG A   1      -6.907 -11.779   7.065  0.00  0.00    +0.224 C 
ATOM     17  O   ARG A   1      -6.985 -11.458   5.885  0.00  0.00    -0.287 OA
ENDBRANCH  13  16
ENDBRANCH  12  13
ENDBRANCH  11  12
ENDBRANCH  10  11
ENDBRANCH   1  10
TORSDOF 6
REMARK  Name = ../refined-set-2016/3tfp/3tfp_pocket.pdb
REMARK  246 active torsions:
REMARK  status: ('A' for Active; 'I' for Inactive)
REMARK    1  A    between atoms: _1  and  _3
REMARK    2  A    between atoms: _3  and  _4
REMARK    3  A    between atoms: _3  and  _6
REMARK    4  A    between atoms: _6  and  _7
REMARK    5  A    between atoms: _10  and  _12
REMARK    6  A    between atoms: _12  and  _13
REMARK    7  A    between atoms: _12  and  _15
REMARK    8  A    between atoms: _15  and  _16
REMARK    9  A    between atoms: _16  and  _17
REMARK   10  A    between atoms: _19  and  _21
REMARK   11  A    between atoms: _21  and  _22
REMARK   12  A    between atoms: _21  and  _24
REMARK   13  A    between atoms: _24  and  _25
REMARK   14  A    between atoms: _30  and  _32
REMARK   15  A    between atoms: _32  and  _33
REMARK   16  A    between atoms: _32  and  _35
REMARK   17  A    between atoms: _35  and  _36
REMARK   18  A    between atoms: _38  and  _40
REMARK   19  A    between atoms: _40  and  _41
REMARK   20  A    between atoms: _40  and  _43
REMARK   21  A    between atoms: _43  and  _44
REMARK   22  A    between atoms: _50  and  _52
REMARK   23  A    between atoms: _52  and  _53
REMARK   24  A    between atoms: _52  and  _55
REMARK   25  A    between atoms: _55  and  _56
REMARK   26  A    between atoms: _58  and  _60
REMARK   27  A    between atoms: _60  and  _61
REMARK   28  A    between atoms: _60  and  _63
REMARK   29  A    between atoms: _63  and  _64
REMARK   30  A    between atoms: _70  and  _72
REMARK   31  A    between atoms: _72  and  _73
REMARK   32  A    between atoms: _76  and  _78
REMARK   33  A    between atoms: _78  and  _79
REMARK   34  A    between atoms: _78  and  _81
REMARK   35  A    between atoms: _84  and  _86
REMARK   36  A    between atoms: _86  and  _87
REMARK   37  A    between atoms: _86  and  _89
REMARK   38  A    between atoms: _89  and  _90
REMARK   39  A    between atoms: _100  and  _102
REMARK   40  A    between atoms: _102  and  _103
REMARK   41  A    between atoms: _106  and  _108
REMARK   42  A    between atoms: _108  and  _109
REMARK   43  A    between atoms: _108  and  _111
REMARK   44  A    between atoms: _111  and  _112
REMARK   45  A    between atoms: _115  and  _117
REMARK   46  A    between atoms: _117  and  _118
REMARK   47  A    between atoms: _117  and  _120
REMARK   48  A    between atoms: _120  and  _121
REMARK   49  A    between atoms: _126  and  _127
REMARK   50  A    between atoms: _129  and  _131
REMARK   51  A    between atoms: _131  and  _132
REMARK   52  A    between atoms: _135  and  _137
REMARK   53  A    between atoms: _137  and  _138
REMARK   54  A    between atoms: _137  and  _140
REMARK   55  A    between atoms: _143  and  _145
REMARK   56  A    between atoms: _145  and  _146
REMARK   57  A    between atoms: _145  and  _148
REMARK   58  A    between atoms: _150  and  _152
REMARK   59  A    between atoms: _152  and  _153
REMARK   60  A    between atoms: _152  and  _155
REMARK   61  A    between atoms: _155  and  _156
REMARK   62  A    between atoms: _156  and  _157
REMARK   63  A    between atoms: _157  and  _158
REMARK   64  A    between atoms: _167  and  _169
REMARK   65  A    between atoms: _169  and  _170
REMARK   66  A    between atoms: _169  and  _172
REMARK   67  A    between atoms: _172  and  _173
REMARK   68  A    between atoms: _173  and  _174
REMARK   69  A    between atoms: _174  and  _175
REMARK   70  A    between atoms: _175  and  _176
REMARK   71  A    between atoms: _180  and  _182
REMARK   72  A    between atoms: _182  and  _183
REMARK   73  A    between atoms: _182  and  _185
REMARK   74  A    between atoms: _185  and  _186
REMARK   75  A    between atoms: _189  and  _191
REMARK   76  A    between atoms: _191  and  _192
REMARK   77  A    between atoms: _191  and  _194
REMARK   78  A    between atoms: _194  and  _195
REMARK   79  A    between atoms: _198  and  _200
REMARK   80  A    between atoms: _200  and  _201
REMARK   81  A    between atoms: _200  and  _203
REMARK   82  A    between atoms: _203  and  _204
REMARK   83  A    between atoms: _207  and  _209
REMARK   84  A    between atoms: _209  and  _210
REMARK   85  A    between atoms: _209  and  _212
REMARK   86  A    between atoms: _212  and  _213
REMARK   87  A    between atoms: _219  and  _221
REMARK   88  A    between atoms: _221  and  _222
REMARK   89  A    between atoms: _221  and  _224
REMARK   90  A    between atoms: _224  and  _225
REMARK   91  A    between atoms: _228  and  _230
REMARK   92  A    between atoms: _230  and  _231
REMARK   93  A    between atoms: _230  and  _233
REMARK   94  A    between atoms: _233  and  _234
REMARK   95  A    between atoms: _237  and  _239
REMARK   96  A    between atoms: _239  and  _240
REMARK   97  A    between atoms: _239  and  _242
REMARK   98  A    between atoms: _242  and  _243
REMARK   99  A    between atoms: _246  and  _248
REMARK  100  A    between atoms: _248  and  _249
REMARK  101  A    between atoms: _248  and  _251
REMARK  102  A    between atoms: _254  and  _256
REMARK  103  A    between atoms: _256  and  _257
REMARK  104  A    between atoms: _256  and  _259
REMARK  105  A    between atoms: _259  and  _260
REMARK  106  A    between atoms: _265  and  _266
REMARK  107  A    between atoms: _268  and  _270
REMARK  108  A    between atoms: _270  and  _271
REMARK  109  A    between atoms: _270  and  _273
REMARK  110  A    between atoms: _275  and  _277
REMARK  111  A    between atoms: _277  and  _278
REMARK  112  A    between atoms: _280  and  _282
REMARK  113  A    between atoms: _282  and  _283
REMARK  114  A    between atoms: _282  and  _285
REMARK  115  A    between atoms: _288  and  _290
REMARK  116  A    between atoms: _290  and  _291
REMARK  117  A    between atoms: _294  and  _296
REMARK  118  A    between atoms: _296  and  _297
REMARK  119  A    between atoms: _299  and  _301
REMARK  120  A    between atoms: _301  and  _302
REMARK  121  A    between atoms: _301  and  _304
REMARK  122  A    between atoms: _304  and  _305
REMARK  123  A    between atoms: _308  and  _310
REMARK  124  A    between atoms: _310  and  _311
REMARK  125  A    between atoms: _310  and  _313
REMARK  126  A    between atoms: _316  and  _318
REMARK  127  A    between atoms: _318  and  _319
REMARK  128  A    between atoms: _321  and  _323
REMARK  129  A    between atoms: _323  and  _324
REMARK  130  A    between atoms: _323  and  _326
REMARK  131  A    between atoms: _326  and  _327
REMARK  132  A    between atoms: _327  and  _328
REMARK  133  A    between atoms: _331  and  _333
REMARK  134  A    between atoms: _333  and  _334
REMARK  135  A    between atoms: _333  and  _336
REMARK  136  A    between atoms: _339  and  _341
REMARK  137  A    between atoms: _341  and  _342
REMARK  138  A    between atoms: _341  and  _344
REMARK  139  A    between atoms: _344  and  _345
REMARK  140  A    between atoms: _348  and  _350
REMARK  141  A    between atoms: _350  and  _351
REMARK  142  A    between atoms: _350  and  _353
REMARK  143  A    between atoms: _353  and  _354
REMARK  144  A    between atoms: _357  and  _359
REMARK  145  A    between atoms: _359  and  _360
REMARK  146  A    between atoms: _359  and  _362
REMARK  147  A    between atoms: _362  and  _363
REMARK  148  A    between atoms: _366  and  _368
REMARK  149  A    between atoms: _368  and  _369
REMARK  150  A    between atoms: _368  and  _371
REMARK  151  A    between atoms: _371  and  _372
REMARK  152  A    between atoms: _377  and  _378
REMARK  153  A    between atoms: _380  and  _382
REMARK  154  A    between atoms: _382  and  _383
REMARK  155  A    between atoms: _382  and  _385
REMARK  156  A    between atoms: _388  and  _390
REMARK  157  A    between atoms: _390  and  _391
REMARK  158  A    between atoms: _394  and  _396
REMARK  159  A    between atoms: _396  and  _397
REMARK  160  A    between atoms: _396  and  _399
REMARK  161  A    between atoms: _399  and  _400
REMARK  162  A    between atoms: _400  and  _401
REMARK  163  A    between atoms: _401  and  _402
REMARK  164  A    between atoms: _411  and  _413
REMARK  165  A    between atoms: _413  and  _414
REMARK  166  A    between atoms: _413  and  _416
REMARK  167  A    between atoms: _416  and  _417
REMARK  168  A    between atoms: _417  and  _418
REMARK  169  A    between atoms: _418  and  _419
REMARK  170  A    between atoms: _428  and  _430
REMARK  171  A    between atoms: _430  and  _431
REMARK  172  A    between atoms: _430  and  _433
REMARK  173  A    between atoms: _433  and  _434
REMARK  174  A    between atoms: _437  and  _439
REMARK  175  A    between atoms: _439  and  _440
REMARK  176  A    between atoms: _442  and  _444
REMARK  177  A    between atoms: _444  and  _445
REMARK  178  A    between atoms: _444  and  _447
REMARK  179  A    between atoms: _447  and  _448
REMARK  180  A    between atoms: _448  and  _449
REMARK  181  A    between atoms: _452  and  _454
REMARK  182  A    between atoms: _454  and  _455
REMARK  183  A    between atoms: _454  and  _457
REMARK  184  A    between atoms: _457  and  _458
REMARK  185  A    between atoms: _460  and  _462
REMARK  186  A    between atoms: _462  and  _463
REMARK  187  A    between atoms: _462  and  _465
REMARK  188  A    between atoms: _465  and  _466
REMARK  189  A    between atoms: _469  and  _471
REMARK  190  A    between atoms: _471  and  _472
REMARK  191  A    between atoms: _471  and  _474
REMARK  192  A    between atoms: _474  and  _475
REMARK  193  A    between atoms: _475  and  _476
REMARK  194  A    between atoms: _481  and  _483
REMARK  195  A    between atoms: _483  and  _484
REMARK  196  A    between atoms: _483  and  _486
REMARK  197  A    between atoms: _486  and  _487
REMARK  198  A    between atoms: _492  and  _494
REMARK  199  A    between atoms: _494  and  _495
REMARK  200  A    between atoms: _494  and  _497
REMARK  201  A    between atoms: _497  and  _498
REMARK  202  A    between atoms: _501  and  _503
REMARK  203  A    between atoms: _503  and  _504
REMARK  204  A    between atoms: _503  and  _506
REMARK  205  A    between atoms: _506  and  _507
REMARK  206  A    between atoms: _507  and  _508
REMARK  207  A    between atoms: _508  and  _509
REMARK  208  A    between atoms: _518  and  _520
REMARK  209  A    between atoms: _520  and  _521
REMARK  210  A    between atoms: _520  and  _523
REMARK  211  A    between atoms: _523  and  _524
REMARK  212  A    between atoms: _527  and  _529
REMARK  213  A    between atoms: _529  and  _530
REMARK  214  A    between atoms: _529  and  _532
REMARK  215  A    between atoms: _532  and  _533
REMARK  216  A    between atoms: _536  and  _538
REMARK  217  A    between atoms: _538  and  _539
REMARK  218  A    between atoms: _538  and  _541
REMARK  219  A    between atoms: _541  and  _542
REMARK  220  A    between atoms: _547  and  _548
REMARK  221  A    between atoms: _550  and  _552
REMARK  222  A    between atoms: _552  and  _553
REMARK  223  A    between atoms: _552  and  _555
REMARK  224  A    between atoms: _558  and  _560
REMARK  225  A    between atoms: _560  and  _561
REMARK  226  A    between atoms: _560  and  _563
REMARK  227  A    between atoms: _563  and  _564
REMARK  228  A    between atoms: _570  and  _572
REMARK  229  A    between atoms: _572  and  _573
REMARK  230  A    between atoms: _572  and  _575
REMARK  231  A    between atoms: _575  and  _576
REMARK  232  A    between atoms: _579  and  _581
REMARK  233  A    between atoms: _581  and  _582
REMARK  234  A    between atoms: _585  and  _587
REMARK  235  A    between atoms: _587  and  _588
REMARK  236  A    between atoms: _591  and  _593
REMARK  237  A    between atoms: _593  and  _594
REMARK  238  A    between atoms: _593  and  _596
REMARK  239  A    between atoms: _596  and  _597
REMARK  240  A    between atoms: _602  and  _603
REMARK  241  A    between atoms: _605  and  _607
REMARK  242  A    between atoms: _607  and  _608
REMARK  243  A    between atoms: _607  and  _610
REMARK  244  A    between atoms: _610  and  _611
REMARK  245  A    between atoms: _611  and  _612
REMARK  246  A    between atoms: _612  and  _613
REMARK                            x       y       z     vdW  Elec       q    Type
REMARK                         _______ _______ _______ _____ _____    ______ ____
ROOT
ATOM      1 MG   UNL     1      -8.306 -22.704  12.047  0.00  0.00    +0.000 Mg
ATOM      2  O   UNL     1      -7.976 -21.973  13.745  0.00  0.00    +0.000 OA
ATOM      3  O   UNL     1      -9.444 -21.498  11.424  0.00  0.00    +0.000 OA
ENDROOT
TORSDOF 0
REMARK  Name = ../refined-set-2016/3tfp/3tfp_pocket.pdb
REMARK  246 active torsions:
REMARK  status: ('A' for Active; 'I' for Inactive)
REMARK    1  A    between atoms: _1  and  _3
REMARK    2  A    between atoms: _3  and  _4
REMARK    3  A    between atoms: _3  and  _6
REMARK    4  A    between atoms: _6  and  _7
REMARK    5  A    between atoms: _10  and  _12
REMARK    6  A    between atoms: _12  and  _13
REMARK    7  A    between atoms: _12  and  _15
REMARK    8  A    between atoms: _15  and  _16
REMARK    9  A    between atoms: _16  and  _17
REMARK   10  A    between atoms: _19  and  _21
REMARK   11  A    between atoms: _21  and  _22
REMARK   12  A    between atoms: _21  and  _24
REMARK   13  A    between atoms: _24  and  _25
REMARK   14  A    between atoms: _30  and  _32
REMARK   15  A    between atoms: _32  and  _33
REMARK   16  A    between atoms: _32  and  _35
REMARK   17  A    between atoms: _35  and  _36
REMARK   18  A    between atoms: _38  and  _40
REMARK   19  A    between atoms: _40  and  _41
REMARK   20  A    between atoms: _40  and  _43
REMARK   21  A    between atoms: _43  and  _44
REMARK   22  A    between atoms: _50  and  _52
REMARK   23  A    between atoms: _52  and  _53
REMARK   24  A    between atoms: _52  and  _55
REMARK   25  A    between atoms: _55  and  _56
REMARK   26  A    between atoms: _58  and  _60
REMARK   27  A    between atoms: _60  and  _61
REMARK   28  A    between atoms: _60  and  _63
REMARK   29  A    between atoms: _63  and  _64
REMARK   30  A    between atoms: _70  and  _72
REMARK   31  A    between atoms: _72  and  _73
REMARK   32  A    between atoms: _76  and  _78
REMARK   33  A    between atoms: _78  and  _79
REMARK   34  A    between atoms: _78  and  _81
REMARK   35  A    between atoms: _84  and  _86
REMARK   36  A    between atoms: _86  and  _87
REMARK   37  A    between atoms: _86  and  _89
REMARK   38  A    between atoms: _89  and  _90
REMARK   39  A    between atoms: _100  and  _102
REMARK   40  A    between atoms: _102  and  _103
REMARK   41  A    between atoms: _106  and  _108
REMARK   42  A    between atoms: _108  and  _109
REMARK   43  A    between atoms: _108  and  _111
REMARK   44  A    between atoms: _111  and  _112
REMARK   45  A    between atoms: _115  and  _117
REMARK   46  A    between atoms: _117  and  _118
REMARK   47  A    between atoms: _117  and  _120
REMARK   48  A    between atoms: _120  and  _121
REMARK   49  A    between atoms: _126  and  _127
REMARK   50  A    between atoms: _129  and  _131
REMARK   51  A    between atoms: _131  and  _132
REMARK   52  A    between atoms: _135  and  _137
REMARK   53  A    between atoms: _137  and  _138
REMARK   54  A    between atoms: _137  and  _140
REMARK   55  A    between atoms: _143  and  _145
REMARK   56  A    between atoms: _145  and  _146
REMARK   57  A    between atoms: _145  and  _148
REMARK   58  A    between atoms: _150  and  _152
REMARK   59  A    between atoms: _152  and  _153
REMARK   60  A    between atoms: _152  and  _155
REMARK   61  A    between atoms: _155  and  _156
REMARK   62  A    between atoms: _156  and  _157
REMARK   63  A    between atoms: _157  and  _158
REMARK   64  A    between atoms: _167  and  _169
REMARK   65  A    between atoms: _169  and  _170
REMARK   66  A    between atoms: _169  and  _172
REMARK   67  A    between atoms: _172  and  _173
REMARK   68  A    between atoms: _173  and  _174
REMARK   69  A    between atoms: _174  and  _175
REMARK   70  A    between atoms: _175  and  _176
REMARK   71  A    between atoms: _180  and  _182
REMARK   72  A    between atoms: _182  and  _183
REMARK   73  A    between atoms: _182  and  _185
REMARK   74  A    between atoms: _185  and  _186
REMARK   75  A    between atoms: _189  and  _191
REMARK   76  A    between atoms: _191  and  _192
REMARK   77  A    between atoms: _191  and  _194
REMARK   78  A    between atoms: _194  and  _195
REMARK   79  A    between atoms: _198  and  _200
REMARK   80  A    between atoms: _200  and  _201
REMARK   81  A    between atoms: _200  and  _203
REMARK   82  A    between atoms: _203  and  _204
REMARK   83  A    between atoms: _207  and  _209
REMARK   84  A    between atoms: _209  and  _210
REMARK   85  A    between atoms: _209  and  _212
REMARK   86  A    between atoms: _212  and  _213
REMARK   87  A    between atoms: _219  and  _221
REMARK   88  A    between atoms: _221  and  _222
REMARK   89  A    between atoms: _221  and  _224
REMARK   90  A    between atoms: _224  and  _225
REMARK   91  A    between atoms: _228  and  _230
REMARK   92  A    between atoms: _230  and  _231
REMARK   93  A    between atoms: _230  and  _233
REMARK   94  A    between atoms: _233  and  _234
REMARK   95  A    between atoms: _237  and  _239
REMARK   96  A    between atoms: _239  and  _240
REMARK   97  A    between atoms: _239  and  _242
REMARK   98  A    between atoms: _242  and  _243
REMARK   99  A    between atoms: _246  and  _248
REMARK  100  A    between atoms: _248  and  _249
REMARK  101  A    between atoms: _248  and  _251
REMARK  102  A    between atoms: _254  and  _256
REMARK  103  A    between atoms: _256  and  _257
REMARK  104  A    between atoms: _256  and  _259
REMARK  105  A    between atoms: _259  and  _260
REMARK  106  A    between atoms: _265  and  _266
REMARK  107  A    between atoms: _268  and  _270
REMARK  108  A    between atoms: _270  and  _271
REMARK  109  A    between atoms: _270  and  _273
REMARK  110  A    between atoms: _275  and  _277
REMARK  111  A    between atoms: _277  and  _278
REMARK  112  A    between atoms: _280  and  _282
REMARK  113  A    between atoms: _282  and  _283
REMARK  114  A    between atoms: _282  and  _285
REMARK  115  A    between atoms: _288  and  _290
REMARK  116  A    between atoms: _290  and  _291
REMARK  117  A    between atoms: _294  and  _296
REMARK  118  A    between atoms: _296  and  _297
REMARK  119  A    between atoms: _299  and  _301
REMARK  120  A    between atoms: _301  and  _302
REMARK  121  A    between atoms: _301  and  _304
REMARK  122  A    between atoms: _304  and  _305
REMARK  123  A    between atoms: _308  and  _310
REMARK  124  A    between atoms: _310  and  _311
REMARK  125  A    between atoms: _310  and  _313
REMARK  126  A    between atoms: _316  and  _318
REMARK  127  A    between atoms: _318  and  _319
REMARK  128  A    between atoms: _321  and  _323
REMARK  129  A    between atoms: _323  and  _324
REMARK  130  A    between atoms: _323  and  _326
REMARK  131  A    between atoms: _326  and  _327
REMARK  132  A    between atoms: _327  and  _328
REMARK  133  A    between atoms: _331  and  _333
REMARK  134  A    between atoms: _333  and  _334
REMARK  135  A    between atoms: _333  and  _336
REMARK  136  A    between atoms: _339  and  _341
REMARK  137  A    between atoms: _341  and  _342
REMARK  138  A    between atoms: _341  and  _344
REMARK  139  A    between atoms: _344  and  _345
REMARK  140  A    between atoms: _348  and  _350
REMARK  141  A    between atoms: _350  and  _351
REMARK  142  A    between atoms: _350  and  _353
REMARK  143  A    between atoms: _353  and  _354
REMARK  144  A    between atoms: _357  and  _359
REMARK  145  A    between atoms: _359  and  _360
REMARK  146  A    between atoms: _359  and  _362
REMARK  147  A    between atoms: _362  and  _363
REMARK  148  A    between atoms: _366  and  _368
REMARK  149  A    between atoms: _368  and  _369
REMARK  150  A    between atoms: _368  and  _371
REMARK  151  A    between atoms: _371  and  _372
REMARK  152  A    between atoms: _377  and  _378
REMARK  153  A    between atoms: _380  and  _382
REMARK  154  A    between atoms: _382  and  _383
REMARK  155  A    between atoms: _382  and  _385
REMARK  156  A    between atoms: _388  and  _390
REMARK  157  A    between atoms: _390  and  _391
REMARK  158  A    between atoms: _394  and  _396
REMARK  159  A    between atoms: _396  and  _397
REMARK  160  A    between atoms: _396  and  _399
REMARK  161  A    between atoms: _399  and  _400
REMARK  162  A    between atoms: _400  and  _401
REMARK  163  A    between atoms: _401  and  _402
REMARK  164  A    between atoms: _411  and  _413
REMARK  165  A    between atoms: _413  and  _414
REMARK  166  A    between atoms: _413  and  _416
REMARK  167  A    between atoms: _416  and  _417
REMARK  168  A    between atoms: _417  and  _418
REMARK  169  A    between atoms: _418  and  _419
REMARK  170  A    between atoms: _428  and  _430
REMARK  171  A    between atoms: _430  and  _431
REMARK  172  A    between atoms: _430  and  _433
REMARK  173  A    between atoms: _433  and  _434
REMARK  174  A    between atoms: _437  and  _439
REMARK  175  A    between atoms: _439  and  _440
REMARK  176  A    between atoms: _442  and  _444
REMARK  177  A    between atoms: _444  and  _445
REMARK  178  A    between atoms: _444  and  _447
REMARK  179  A    between atoms: _447  and  _448
REMARK  180  A    between atoms: _448  and  _449
REMARK  181  A    between atoms: _452  and  _454
REMARK  182  A    between atoms: _454  and  _455
REMARK  183  A    between atoms: _454  and  _457
REMARK  184  A    between atoms: _457  and  _458
REMARK  185  A    between atoms: _460  and  _462
REMARK  186  A    between atoms: _462  and  _463
REMARK  187  A    between atoms: _462  and  _465
REMARK  188  A    between atoms: _465  and  _466
REMARK  189  A    between atoms: _469  and  _471
REMARK  190  A    between atoms: _471  and  _472
REMARK  191  A    between atoms: _471  and  _474
REMARK  192  A    between atoms: _474  and  _475
REMARK  193  A    between atoms: _475  and  _476
REMARK  194  A    between atoms: _481  and  _483
REMARK  195  A    between atoms: _483  and  _484
REMARK  196  A    between atoms: _483  and  _486
REMARK  197  A    between atoms: _486  and  _487
REMARK  198  A    between atoms: _492  and  _494
REMARK  199  A    between atoms: _494  and  _495
REMARK  200  A    between atoms: _494  and  _497
REMARK  201  A    between atoms: _497  and  _498
REMARK  202  A    between atoms: _501  and  _503
REMARK  203  A    between atoms: _503  and  _504
REMARK  204  A    between atoms: _503  and  _506
REMARK  205  A    between atoms: _506  and  _507
REMARK  206  A    between atoms: _507  and  _508
REMARK  207  A    between atoms: _508  and  _509
REMARK  208  A    between atoms: _518  and  _520
REMARK  209  A    between atoms: _520  and  _521
REMARK  210  A    between atoms: _520  and  _523
REMARK  211  A    between atoms: _523  and  _524
REMARK  212  A    between atoms: _527  and  _529
REMARK  213  A    between atoms: _529  and  _530
REMARK  214  A    between atoms: _529  and  _532
REMARK  215  A    between atoms: _532  and  _533
REMARK  216  A    between atoms: _536  and  _538
REMARK  217  A    between atoms: _538  and  _539
REMARK  218  A    between atoms: _538  and  _541
REMARK  219  A    between atoms: _541  and  _542
REMARK  220  A    between atoms: _547  and  _548
REMARK  221  A    between atoms: _550  and  _552
REMARK  222  A    between atoms: _552  and  _553
REMARK  223  A    between atoms: _552  and  _555
REMARK  224  A    between atoms: _558  and  _560
REMARK  225  A    between atoms: _560  and  _561
REMARK  226  A    between atoms: _560  and  _563
REMARK  227  A    between atoms: _563  and  _564
REMARK  228  A    between atoms: _570  and  _572
REMARK  229  A    between atoms: _572  and  _573
REMARK  230  A    between atoms: _572  and  _575
REMARK  231  A    between atoms: _575  and  _576
REMARK  232  A    between atoms: _579  and  _581
REMARK  233  A    between atoms: _581  and  _582
REMARK  234  A    between atoms: _585  and  _587
REMARK  235  A    between atoms: _587  and  _588
REMARK  236  A    between atoms: _591  and  _593
REMARK  237  A    between atoms: _593  and  _594
REMARK  238  A    between atoms: _593  and  _596
REMARK  239  A    between atoms: _596  and  _597
REMARK  240  A    between atoms: _602  and  _603
REMARK  241  A    between atoms: _605  and  _607
REMARK  242  A    between atoms: _607  and  _608
REMARK  243  A    between atoms: _607  and  _610
REMARK  244  A    between atoms: _610  and  _611
REMARK  245  A    between atoms: _611  and  _612
REMARK  246  A    between atoms: _612  and  _613
REMARK                            x       y       z     vdW  Elec       q    Type
REMARK                         _______ _______ _______ _____ _____    ______ ____
ROOT
ATOM      1 MG   UNL     1      -9.678 -26.727  10.394  0.00  0.00    +0.000 Mg
ENDROOT
TORSDOF 0
REMARK  Name = ../refined-set-2016/3tfp/3tfp_pocket.pdb
REMARK  246 active torsions:
REMARK  status: ('A' for Active; 'I' for Inactive)
REMARK    1  A    between atoms: _1  and  _3
REMARK    2  A    between atoms: _3  and  _4
REMARK    3  A    between atoms: _3  and  _6
REMARK    4  A    between atoms: _6  and  _7
REMARK    5  A    between atoms: _10  and  _12
REMARK    6  A    between atoms: _12  and  _13
REMARK    7  A    between atoms: _12  and  _15
REMARK    8  A    between atoms: _15  and  _16
REMARK    9  A    between atoms: _16  and  _17
REMARK   10  A    between atoms: _19  and  _21
REMARK   11  A    between atoms: _21  and  _22
REMARK   12  A    between atoms: _21  and  _24
REMARK   13  A    between atoms: _24  and  _25
REMARK   14  A    between atoms: _30  and  _32
REMARK   15  A    between atoms: _32  and  _33
REMARK   16  A    between atoms: _32  and  _35
REMARK   17  A    between atoms: _35  and  _36
REMARK   18  A    between atoms: _38  and  _40
REMARK   19  A    between atoms: _40  and  _41
REMARK   20  A    between atoms: _40  and  _43
REMARK   21  A    between atoms: _43  and  _44
REMARK   22  A    between atoms: _50  and  _52
REMARK   23  A    between atoms: _52  and  _53
REMARK   24  A    between atoms: _52  and  _55
REMARK   25  A    between atoms: _55  and  _56
REMARK   26  A    between atoms: _58  and  _60
REMARK   27  A    between atoms: _60  and  _61
REMARK   28  A    between atoms: _60  and  _63
REMARK   29  A    between atoms: _63  and  _64
REMARK   30  A    between atoms: _70  and  _72
REMARK   31  A    between atoms: _72  and  _73
REMARK   32  A    between atoms: _76  and  _78
REMARK   33  A    between atoms: _78  and  _79
REMARK   34  A    between atoms: _78  and  _81
REMARK   35  A    between atoms: _84  and  _86
REMARK   36  A    between atoms: _86  and  _87
REMARK   37  A    between atoms: _86  and  _89
REMARK   38  A    between atoms: _89  and  _90
REMARK   39  A    between atoms: _100  and  _102
REMARK   40  A    between atoms: _102  and  _103
REMARK   41  A    between atoms: _106  and  _108
REMARK   42  A    between atoms: _108  and  _109
REMARK   43  A    between atoms: _108  and  _111
REMARK   44  A    between atoms: _111  and  _112
REMARK   45  A    between atoms: _115  and  _117
REMARK   46  A    between atoms: _117  and  _118
REMARK   47  A    between atoms: _117  and  _120
REMARK   48  A    between atoms: _120  and  _121
REMARK   49  A    between atoms: _126  and  _127
REMARK   50  A    between atoms: _129  and  _131
REMARK   51  A    between atoms: _131  and  _132
REMARK   52  A    between atoms: _135  and  _137
REMARK   53  A    between atoms: _137  and  _138
REMARK   54  A    between atoms: _137  and  _140
REMARK   55  A    between atoms: _143  and  _145
REMARK   56  A    between atoms: _145  and  _146
REMARK   57  A    between atoms: _145  and  _148
REMARK   58  A    between atoms: _150  and  _152
REMARK   59  A    between atoms: _152  and  _153
REMARK   60  A    between atoms: _152  and  _155
REMARK   61  A    between atoms: _155  and  _156
REMARK   62  A    between atoms: _156  and  _157
REMARK   63  A    between atoms: _157  and  _158
REMARK   64  A    between atoms: _167  and  _169
REMARK   65  A    between atoms: _169  and  _170
REMARK   66  A    between atoms: _169  and  _172
REMARK   67  A    between atoms: _172  and  _173
REMARK   68  A    between atoms: _173  and  _174
REMARK   69  A    between atoms: _174  and  _175
REMARK   70  A    between atoms: _175  and  _176
REMARK   71  A    between atoms: _180  and  _182
REMARK   72  A    between atoms: _182  and  _183
REMARK   73  A    between atoms: _182  and  _185
REMARK   74  A    between atoms: _185  and  _186
REMARK   75  A    between atoms: _189  and  _191
REMARK   76  A    between atoms: _191  and  _192
REMARK   77  A    between atoms: _191  and  _194
REMARK   78  A    between atoms: _194  and  _195
REMARK   79  A    between atoms: _198  and  _200
REMARK   80  A    between atoms: _200  and  _201
REMARK   81  A    between atoms: _200  and  _203
REMARK   82  A    between atoms: _203  and  _204
REMARK   83  A    between atoms: _207  and  _209
REMARK   84  A    between atoms: _209  and  _210
REMARK   85  A    between atoms: _209  and  _212
REMARK   86  A    between atoms: _212  and  _213
REMARK   87  A    between atoms: _219  and  _221
REMARK   88  A    between atoms: _221  and  _222
REMARK   89  A    between atoms: _221  and  _224
REMARK   90  A    between atoms: _224  and  _225
REMARK   91  A    between atoms: _228  and  _230
REMARK   92  A    between atoms: _230  and  _231
REMARK   93  A    between atoms: _230  and  _233
REMARK   94  A    between atoms: _233  and  _234
REMARK   95  A    between atoms: _237  and  _239
REMARK   96  A    between atoms: _239  and  _240
REMARK   97  A    between atoms: _239  and  _242
REMARK   98  A    between atoms: _242  and  _243
REMARK   99  A    between atoms: _246  and  _248
REMARK  100  A    between atoms: _248  and  _249
REMARK  101  A    between atoms: _248  and  _251
REMARK  102  A    between atoms: _254  and  _256
REMARK  103  A    between atoms: _256  and  _257
REMARK  104  A    between atoms: _256  and  _259
REMARK  105  A    between atoms: _259  and  _260
REMARK  106  A    between atoms: _265  and  _266
REMARK  107  A    between atoms: _268  and  _270
REMARK  108  A    between atoms: _270  and  _271
REMARK  109  A    between atoms: _270  and  _273
REMARK  110  A    between atoms: _275  and  _277
REMARK  111  A    between atoms: _277  and  _278
REMARK  112  A    between atoms: _280  and  _282
REMARK  113  A    between atoms: _282  and  _283
REMARK  114  A    between atoms: _282  and  _285
REMARK  115  A    between atoms: _288  and  _290
REMARK  116  A    between atoms: _290  and  _291
REMARK  117  A    between atoms: _294  and  _296
REMARK  118  A    between atoms: _296  and  _297
REMARK  119  A    between atoms: _299  and  _301
REMARK  120  A    between atoms: _301  and  _302
REMARK  121  A    between atoms: _301  and  _304
REMARK  122  A    between atoms: _304  and  _305
REMARK  123  A    between atoms: _308  and  _310
REMARK  124  A    between atoms: _310  and  _311
REMARK  125  A    between atoms: _310  and  _313
REMARK  126  A    between atoms: _316  and  _318
REMARK  127  A    between atoms: _318  and  _319
REMARK  128  A    between atoms: _321  and  _323
REMARK  129  A    between atoms: _323  and  _324
REMARK  130  A    between atoms: _323  and  _326
REMARK  131  A    between atoms: _326  and  _327
REMARK  132  A    between atoms: _327  and  _328
REMARK  133  A    between atoms: _331  and  _333
REMARK  134  A    between atoms: _333  and  _334
REMARK  135  A    between atoms: _333  and  _336
REMARK  136  A    between atoms: _339  and  _341
REMARK  137  A    between atoms: _341  and  _342
REMARK  138  A    between atoms: _341  and  _344
REMARK  139  A    between atoms: _344  and  _345
REMARK  140  A    between atoms: _348  and  _350
REMARK  141  A    between atoms: _350  and  _351
REMARK  142  A    between atoms: _350  and  _353
REMARK  143  A    between atoms: _353  and  _354
REMARK  144  A    between atoms: _357  and  _359
REMARK  145  A    between atoms: _359  and  _360
REMARK  146  A    between atoms: _359  and  _362
REMARK  147  A    between atoms: _362  and  _363
REMARK  148  A    between atoms: _366  and  _368
REMARK  149  A    between atoms: _368  and  _369
REMARK  150  A    between atoms: _368  and  _371
REMARK  151  A    between atoms: _371  and  _372
REMARK  152  A    between atoms: _377  and  _378
REMARK  153  A    between atoms: _380  and  _382
REMARK  154  A    between atoms: _382  and  _383
REMARK  155  A    between atoms: _382  and  _385
REMARK  156  A    between atoms: _388  and  _390
REMARK  157  A    between atoms: _390  and  _391
REMARK  158  A    between atoms: _394  and  _396
REMARK  159  A    between atoms: _396  and  _397
REMARK  160  A    between atoms: _396  and  _399
REMARK  161  A    between atoms: _399  and  _400
REMARK  162  A    between atoms: _400  and  _401
REMARK  163  A    between atoms: _401  and  _402
REMARK  164  A    between atoms: _411  and  _413
REMARK  165  A    between atoms: _413  and  _414
REMARK  166  A    between atoms: _413  and  _416
REMARK  167  A    between atoms: _416  and  _417
REMARK  168  A    between atoms: _417  and  _418
REMARK  169  A    between atoms: _418  and  _419
REMARK  170  A    between atoms: _428  and  _430
REMARK  171  A    between atoms: _430  and  _431
REMARK  172  A    between atoms: _430  and  _433
REMARK  173  A    between atoms: _433  and  _434
REMARK  174  A    between atoms: _437  and  _439
REMARK  175  A    between atoms: _439  and  _440
REMARK  176  A    between atoms: _442  and  _444
REMARK  177  A    between atoms: _444  and  _445
REMARK  178  A    between atoms: _444  and  _447
REMARK  179  A    between atoms: _447  and  _448
REMARK  180  A    between atoms: _448  and  _449
REMARK  181  A    between atoms: _452  and  _454
REMARK  182  A    between atoms: _454  and  _455
REMARK  183  A    between atoms: _454  and  _457
REMARK  184  A    between atoms: _457  and  _458
REMARK  185  A    between atoms: _460  and  _462
REMARK  186  A    between atoms: _462  and  _463
REMARK  187  A    between atoms: _462  and  _465
REMARK  188  A    between atoms: _465  and  _466
REMARK  189  A    between atoms: _469  and  _471
REMARK  190  A    between atoms: _471  and  _472
REMARK  191  A    between atoms: _471  and  _474
REMARK  192  A    between atoms: _474  and  _475
REMARK  193  A    between atoms: _475  and  _476
REMARK  194  A    between atoms: _481  and  _483
REMARK  195  A    between atoms: _483  and  _484
REMARK  196  A    between atoms: _483  and  _486
REMARK  197  A    between atoms: _486  and  _487
REMARK  198  A    between atoms: _492  and  _494
REMARK  199  A    between atoms: _494  and  _495
REMARK  200  A    between atoms: _494  and  _497
REMARK  201  A    between atoms: _497  and  _498
REMARK  202  A    between atoms: _501  and  _503
REMARK  203  A    between atoms: _503  and  _504
REMARK  204  A    between atoms: _503  and  _506
REMARK  205  A    between atoms: _506  and  _507
REMARK  206  A    between atoms: _507  and  _508
REMARK  207  A    between atoms: _508  and  _509
REMARK  208  A    between atoms: _518  and  _520
REMARK  209  A    between atoms: _520  and  _521
REMARK  210  A    between atoms: _520  and  _523
REMARK  211  A    between atoms: _523  and  _524
REMARK  212  A    between atoms: _527  and  _529
REMARK  213  A    between atoms: _529  and  _530
REMARK  214  A    between atoms: _529  and  _532
REMARK  215  A    between atoms: _532  and  _533
REMARK  216  A    between atoms: _536  and  _538
REMARK  217  A    between atoms: _538  and  _539
REMARK  218  A    between atoms: _538  and  _541
REMARK  219  A    between atoms: _541  and  _542
REMARK  220  A    between atoms: _547  and  _548
REMARK  221  A    between atoms: _550  and  _552
REMARK  222  A    between atoms: _552  and  _553
REMARK  223  A    between atoms: _552  and  _555
REMARK  224  A    between atoms: _558  and  _560
REMARK  225  A    between atoms: _560  and  _561
REMARK  226  A    between atoms: _560  and  _563
REMARK  227  A    between atoms: _563  and  _564
REMARK  228  A    between atoms: _570  and  _572
REMARK  229  A    between atoms: _572  and  _573
REMARK  230  A    between atoms: _572  and  _575
REMARK  231  A    between atoms: _575  and  _576
REMARK  232  A    between atoms: _579  and  _581
REMARK  233  A    between atoms: _581  and  _582
REMARK  234  A    between atoms: _585  and  _587
REMARK  235  A    between atoms: _587  and  _588
REMARK  236  A    between atoms: _591  and  _593
REMARK  237  A    between atoms: _593  and  _594
REMARK  238  A    between atoms: _593  and  _596
REMARK  239  A    between atoms: _596  and  _597
REMARK  240  A    between atoms: _602  and  _603
REMARK  241  A    between atoms: _605  and  _607
REMARK  242  A    between atoms: _607  and  _608
REMARK  243  A    between atoms: _607  and  _610
REMARK  244  A    between atoms: _610  and  _611
REMARK  245  A    between atoms: _611  and  _612
REMARK  246  A    between atoms: _612  and  _613
REMARK                            x       y       z     vdW  Elec       q    Type
REMARK                         _______ _______ _______ _____ _____    ______ ____
ROOT
ATOM      1  O   HOH     1      -6.564 -24.173  10.851  0.00  0.00    +0.000 OA
ENDROOT
TORSDOF 0
REMARK  Name = ../refined-set-2016/3tfp/3tfp_pocket.pdb
REMARK  246 active torsions:
REMARK  status: ('A' for Active; 'I' for Inactive)
REMARK    1  A    between atoms: _1  and  _3
REMARK    2  A    between atoms: _3  and  _4
REMARK    3  A    between atoms: _3  and  _6
REMARK    4  A    between atoms: _6  and  _7
REMARK    5  A    between atoms: _10  and  _12
REMARK    6  A    between atoms: _12  and  _13
REMARK    7  A    between atoms: _12  and  _15
REMARK    8  A    between atoms: _15  and  _16
REMARK    9  A    between atoms: _16  and  _17
REMARK   10  A    between atoms: _19  and  _21
REMARK   11  A    between atoms: _21  and  _22
REMARK   12  A    between atoms: _21  and  _24
REMARK   13  A    between atoms: _24  and  _25
REMARK   14  A    between atoms: _30  and  _32
REMARK   15  A    between atoms: _32  and  _33
REMARK   16  A    between atoms: _32  and  _35
REMARK   17  A    between atoms: _35  and  _36
REMARK   18  A    between atoms: _38  and  _40
REMARK   19  A    between atoms: _40  and  _41
REMARK   20  A    between atoms: _40  and  _43
REMARK   21  A    between atoms: _43  and  _44
REMARK   22  A    between atoms: _50  and  _52
REMARK   23  A    between atoms: _52  and  _53
REMARK   24  A    between atoms: _52  and  _55
REMARK   25  A    between atoms: _55  and  _56
REMARK   26  A    between atoms: _58  and  _60
REMARK   27  A    between atoms: _60  and  _61
REMARK   28  A    between atoms: _60  and  _63
REMARK   29  A    between atoms: _63  and  _64
REMARK   30  A    between atoms: _70  and  _72
REMARK   31  A    between atoms: _72  and  _73
REMARK   32  A    between atoms: _76  and  _78
REMARK   33  A    between atoms: _78  and  _79
REMARK   34  A    between atoms: _78  and  _81
REMARK   35  A    between atoms: _84  and  _86
REMARK   36  A    between atoms: _86  and  _87
REMARK   37  A    between atoms: _86  and  _89
REMARK   38  A    between atoms: _89  and  _90
REMARK   39  A    between atoms: _100  and  _102
REMARK   40  A    between atoms: _102  and  _103
REMARK   41  A    between atoms: _106  and  _108
REMARK   42  A    between atoms: _108  and  _109
REMARK   43  A    between atoms: _108  and  _111
REMARK   44  A    between atoms: _111  and  _112
REMARK   45  A    between atoms: _115  and  _117
REMARK   46  A    between atoms: _117  and  _118
REMARK   47  A    between atoms: _117  and  _120
REMARK   48  A    between atoms: _120  and  _121
REMARK   49  A    between atoms: _126  and  _127
REMARK   50  A    between atoms: _129  and  _131
REMARK   51  A    between atoms: _131  and  _132
REMARK   52  A    between atoms: _135  and  _137
REMARK   53  A    between atoms: _137  and  _138
REMARK   54  A    between atoms: _137  and  _140
REMARK   55  A    between atoms: _143  and  _145
REMARK   56  A    between atoms: _145  and  _146
REMARK   57  A    between atoms: _145  and  _148
REMARK   58  A    between atoms: _150  and  _152
REMARK   59  A    between atoms: _152  and  _153
REMARK   60  A    between atoms: _152  and  _155
REMARK   61  A    between atoms: _155  and  _156
REMARK   62  A    between atoms: _156  and  _157
REMARK   63  A    between atoms: _157  and  _158
REMARK   64  A    between atoms: _167  and  _169
REMARK   65  A    between atoms: _169  and  _170
REMARK   66  A    between atoms: _169  and  _172
REMARK   67  A    between atoms: _172  and  _173
REMARK   68  A    between atoms: _173  and  _174
REMARK   69  A    between atoms: _174  and  _175
REMARK   70  A    between atoms: _175  and  _176
REMARK   71  A    between atoms: _180  and  _182
REMARK   72  A    between atoms: _182  and  _183
REMARK   73  A    between atoms: _182  and  _185
REMARK   74  A    between atoms: _185  and  _186
REMARK   75  A    between atoms: _189  and  _191
REMARK   76  A    between atoms: _191  and  _192
REMARK   77  A    between atoms: _191  and  _194
REMARK   78  A    between atoms: _194  and  _195
REMARK   79  A    between atoms: _198  and  _200
REMARK   80  A    between atoms: _200  and  _201
REMARK   81  A    between atoms: _200  and  _203
REMARK   82  A    between atoms: _203  and  _204
REMARK   83  A    between atoms: _207  and  _209
REMARK   84  A    between atoms: _209  and  _210
REMARK   85  A    between atoms: _209  and  _212
REMARK   86  A    between atoms: _212  and  _213
REMARK   87  A    between atoms: _219  and  _221
REMARK   88  A    between atoms: _221  and  _222
REMARK   89  A    between atoms: _221  and  _224
REMARK   90  A    between atoms: _224  and  _225
REMARK   91  A    between atoms: _228  and  _230
REMARK   92  A    between atoms: _230  and  _231
REMARK   93  A    between atoms: _230  and  _233
REMARK   94  A    between atoms: _233  and  _234
REMARK   95  A    between atoms: _237  and  _239
REMARK   96  A    between atoms: _239  and  _240
REMARK   97  A    between atoms: _239  and  _242
REMARK   98  A    between atoms: _242  and  _243
REMARK   99  A    between atoms: _246  and  _248
REMARK  100  A    between atoms: _248  and  _249
REMARK  101  A    between atoms: _248  and  _251
REMARK  102  A    between atoms: _254  and  _256
REMARK  103  A    between atoms: _256  and  _257
REMARK  104  A    between atoms: _256  and  _259
REMARK  105  A    between atoms: _259  and  _260
REMARK  106  A    between atoms: _265  and  _266
REMARK  107  A    between atoms: _268  and  _270
REMARK  108  A    between atoms: _270  and  _271
REMARK  109  A    between atoms: _270  and  _273
REMARK  110  A    between atoms: _275  and  _277
REMARK  111  A    between atoms: _277  and  _278
REMARK  112  A    between atoms: _280  and  _282
REMARK  113  A    between atoms: _282  and  _283
REMARK  114  A    between atoms: _282  and  _285
REMARK  115  A    between atoms: _288  and  _290
REMARK  116  A    between atoms: _290  and  _291
REMARK  117  A    between atoms: _294  and  _296
REMARK  118  A    between atoms: _296  and  _297
REMARK  119  A    between atoms: _299  and  _301
REMARK  120  A    between atoms: _301  and  _302
REMARK  121  A    between atoms: _301  and  _304
REMARK  122  A    between atoms: _304  and  _305
REMARK  123  A    between atoms: _308  and  _310
REMARK  124  A    between atoms: _310  and  _311
REMARK  125  A    between atoms: _310  and  _313
REMARK  126  A    between atoms: _316  and  _318
REMARK  127  A    between atoms: _318  and  _319
REMARK  128  A    between atoms: _321  and  _323
REMARK  129  A    between atoms: _323  and  _324
REMARK  130  A    between atoms: _323  and  _326
REMARK  131  A    between atoms: _326  and  _327
REMARK  132  A    between atoms: _327  and  _328
REMARK  133  A    between atoms: _331  and  _333
REMARK  134  A    between atoms: _333  and  _334
REMARK  135  A    between atoms: _333  and  _336
REMARK  136  A    between atoms: _339  and  _341
REMARK  137  A    between atoms: _341  and  _342
REMARK  138  A    between atoms: _341  and  _344
REMARK  139  A    between atoms: _344  and  _345
REMARK  140  A    between atoms: _348  and  _350
REMARK  141  A    between atoms: _350  and  _351
REMARK  142  A    between atoms: _350  and  _353
REMARK  143  A    between atoms: _353  and  _354
REMARK  144  A    between atoms: _357  and  _359
REMARK  145  A    between atoms: _359  and  _360
REMARK  146  A    between atoms: _359  and  _362
REMARK  147  A    between atoms: _362  and  _363
REMARK  148  A    between atoms: _366  and  _368
REMARK  149  A    between atoms: _368  and  _369
REMARK  150  A    between atoms: _368  and  _371
REMARK  151  A    between atoms: _371  and  _372
REMARK  152  A    between atoms: _377  and  _378
REMARK  153  A    between atoms: _380  and  _382
REMARK  154  A    between atoms: _382  and  _383
REMARK  155  A    between atoms: _382  and  _385
REMARK  156  A    between atoms: _388  and  _390
REMARK  157  A    between atoms: _390  and  _391
REMARK  158  A    between atoms: _394  and  _396
REMARK  159  A    between atoms: _396  and  _397
REMARK  160  A    between atoms: _396  and  _399
REMARK  161  A    between atoms: _399  and  _400
REMARK  162  A    between atoms: _400  and  _401
REMARK  163  A    between atoms: _401  and  _402
REMARK  164  A    between atoms: _411  and  _413
REMARK  165  A    between atoms: _413  and  _414
REMARK  166  A    between atoms: _413  and  _416
REMARK  167  A    between atoms: _416  and  _417
REMARK  168  A    between atoms: _417  and  _418
REMARK  169  A    between atoms: _418  and  _419
REMARK  170  A    between atoms: _428  and  _430
REMARK  171  A    between atoms: _430  and  _431
REMARK  172  A    between atoms: _430  and  _433
REMARK  173  A    between atoms: _433  and  _434
REMARK  174  A    between atoms: _437  and  _439
REMARK  175  A    between atoms: _439  and  _440
REMARK  176  A    between atoms: _442  and  _444
REMARK  177  A    between atoms: _444  and  _445
REMARK  178  A    between atoms: _444  and  _447
REMARK  179  A    between atoms: _447  and  _448
REMARK  180  A    between atoms: _448  and  _449
REMARK  181  A    between atoms: _452  and  _454
REMARK  182  A    between atoms: _454  and  _455
REMARK  183  A    between atoms: _454  and  _457
REMARK  184  A    between atoms: _457  and  _458
REMARK  185  A    between atoms: _460  and  _462
REMARK  186  A    between atoms: _462  and  _463
REMARK  187  A    between atoms: _462  and  _465
REMARK  188  A    between atoms: _465  and  _466
REMARK  189  A    between atoms: _469  and  _471
REMARK  190  A    between atoms: _471  and  _472
REMARK  191  A    between atoms: _471  and  _474
REMARK  192  A    between atoms: _474  and  _475
REMARK  193  A    between atoms: _475  and  _476
REMARK  194  A    between atoms: _481  and  _483
REMARK  195  A    between atoms: _483  and  _484
REMARK  196  A    between atoms: _483  and  _486
REMARK  197  A    between atoms: _486  and  _487
REMARK  198  A    between atoms: _492  and  _494
REMARK  199  A    between atoms: _494  and  _495
REMARK  200  A    between atoms: _494  and  _497
REMARK  201  A    between atoms: _497  and  _498
REMARK  202  A    between atoms: _501  and  _503
REMARK  203  A    between atoms: _503  and  _504
REMARK  204  A    between atoms: _503  and  _506
REMARK  205  A    between atoms: _506  and  _507
REMARK  206  A    between atoms: _507  and  _508
REMARK  207  A    between atoms: _508  and  _509
REMARK  208  A    between atoms: _518  and  _520
REMARK  209  A    between atoms: _520  and  _521
REMARK  210  A    between atoms: _520  and  _523
REMARK  211  A    between atoms: _523  and  _524
REMARK  212  A    between atoms: _527  and  _529
REMARK  213  A    between atoms: _529  and  _530
REMARK  214  A    between atoms: _529  and  _532
REMARK  215  A    between atoms: _532  and  _533
REMARK  216  A    between atoms: _536  and  _538
REMARK  217  A    between atoms: _538  and  _539
REMARK  218  A    between atoms: _538  and  _541
REMARK  219  A    between atoms: _541  and  _542
REMARK  220  A    between atoms: _547  and  _548
REMARK  221  A    between atoms: _550  and  _552
REMARK  222  A    between atoms: _552  and  _553
REMARK  223  A    between atoms: _552  and  _555
REMARK  224  A    between atoms: _558  and  _560
REMARK  225  A    between atoms: _560  and  _561
REMARK  226  A    between atoms: _560  and  _563
REMARK  227  A    between atoms: _563  and  _564
REMARK  228  A    between atoms: _570  and  _572
REMARK  229  A    between atoms: _572  and  _573
REMARK  230  A    between atoms: _572  and  _575
REMARK  231  A    between atoms: _575  and  _576
REMARK  232  A    between atoms: _579  and  _581
REMARK  233  A    between atoms: _581  and  _582
REMARK  234  A    between atoms: _585  and  _587
REMARK  235  A    between atoms: _587  and  _588
REMARK  236  A    between atoms: _591  and  _593
REMARK  237  A    between atoms: _593  and  _594
REMARK  238  A    between atoms: _593  and  _596
REMARK  239  A    between atoms: _596  and  _597
REMARK  240  A    between atoms: _602  and  _603
REMARK  241  A    between atoms: _605  and  _607
REMARK  242  A    between atoms: _607  and  _608
REMARK  243  A    between atoms: _607  and  _610
REMARK  244  A    between atoms: _610  and  _611
REMARK  245  A    between atoms: _611  and  _612
REMARK  246  A    between atoms: _612  and  _613
REMARK                            x       y       z     vdW  Elec       q    Type
REMARK                         _______ _______ _______ _____ _____    ______ ____
ROOT
ATOM      1  O   HOH     1      -1.261 -25.647   8.343  0.00  0.00    +0.000 OA
ENDROOT
TORSDOF 0
REMARK  Name = ../refined-set-2016/3tfp/3tfp_pocket.pdb
REMARK  246 active torsions:
REMARK  status: ('A' for Active; 'I' for Inactive)
REMARK    1  A    between atoms: _1  and  _3
REMARK    2  A    between atoms: _3  and  _4
REMARK    3  A    between atoms: _3  and  _6
REMARK    4  A    between atoms: _6  and  _7
REMARK    5  A    between atoms: _10  and  _12
REMARK    6  A    between atoms: _12  and  _13
REMARK    7  A    between atoms: _12  and  _15
REMARK    8  A    between atoms: _15  and  _16
REMARK    9  A    between atoms: _16  and  _17
REMARK   10  A    between atoms: _19  and  _21
REMARK   11  A    between atoms: _21  and  _22
REMARK   12  A    between atoms: _21  and  _24
REMARK   13  A    between atoms: _24  and  _25
REMARK   14  A    between atoms: _30  and  _32
REMARK   15  A    between atoms: _32  and  _33
REMARK   16  A    between atoms: _32  and  _35
REMARK   17  A    between atoms: _35  and  _36
REMARK   18  A    between atoms: _38  and  _40
REMARK   19  A    between atoms: _40  and  _41
REMARK   20  A    between atoms: _40  and  _43
REMARK   21  A    between atoms: _43  and  _44
REMARK   22  A    between atoms: _50  and  _52
REMARK   23  A    between atoms: _52  and  _53
REMARK   24  A    between atoms: _52  and  _55
REMARK   25  A    between atoms: _55  and  _56
REMARK   26  A    between atoms: _58  and  _60
REMARK   27  A    between atoms: _60  and  _61
REMARK   28  A    between atoms: _60  and  _63
REMARK   29  A    between atoms: _63  and  _64
REMARK   30  A    between atoms: _70  and  _72
REMARK   31  A    between atoms: _72  and  _73
REMARK   32  A    between atoms: _76  and  _78
REMARK   33  A    between atoms: _78  and  _79
REMARK   34  A    between atoms: _78  and  _81
REMARK   35  A    between atoms: _84  and  _86
REMARK   36  A    between atoms: _86  and  _87
REMARK   37  A    between atoms: _86  and  _89
REMARK   38  A    between atoms: _89  and  _90
REMARK   39  A    between atoms: _100  and  _102
REMARK   40  A    between atoms: _102  and  _103
REMARK   41  A    between atoms: _106  and  _108
REMARK   42  A    between atoms: _108  and  _109
REMARK   43  A    between atoms: _108  and  _111
REMARK   44  A    between atoms: _111  and  _112
REMARK   45  A    between atoms: _115  and  _117
REMARK   46  A    between atoms: _117  and  _118
REMARK   47  A    between atoms: _117  and  _120
REMARK   48  A    between atoms: _120  and  _121
REMARK   49  A    between atoms: _126  and  _127
REMARK   50  A    between atoms: _129  and  _131
REMARK   51  A    between atoms: _131  and  _132
REMARK   52  A    between atoms: _135  and  _137
REMARK   53  A    between atoms: _137  and  _138
REMARK   54  A    between atoms: _137  and  _140
REMARK   55  A    between atoms: _143  and  _145
REMARK   56  A    between atoms: _145  and  _146
REMARK   57  A    between atoms: _145  and  _148
REMARK   58  A    between atoms: _150  and  _152
REMARK   59  A    between atoms: _152  and  _153
REMARK   60  A    between atoms: _152  and  _155
REMARK   61  A    between atoms: _155  and  _156
REMARK   62  A    between atoms: _156  and  _157
REMARK   63  A    between atoms: _157  and  _158
REMARK   64  A    between atoms: _167  and  _169
REMARK   65  A    between atoms: _169  and  _170
REMARK   66  A    between atoms: _169  and  _172
REMARK   67  A    between atoms: _172  and  _173
REMARK   68  A    between atoms: _173  and  _174
REMARK   69  A    between atoms: _174  and  _175
REMARK   70  A    between atoms: _175  and  _176
REMARK   71  A    between atoms: _180  and  _182
REMARK   72  A    between atoms: _182  and  _183
REMARK   73  A    between atoms: _182  and  _185
REMARK   74  A    between atoms: _185  and  _186
REMARK   75  A    between atoms: _189  and  _191
REMARK   76  A    between atoms: _191  and  _192
REMARK   77  A    between atoms: _191  and  _194
REMARK   78  A    between atoms: _194  and  _195
REMARK   79  A    between atoms: _198  and  _200
REMARK   80  A    between atoms: _200  and  _201
REMARK   81  A    between atoms: _200  and  _203
REMARK   82  A    between atoms: _203  and  _204
REMARK   83  A    between atoms: _207  and  _209
REMARK   84  A    between atoms: _209  and  _210
REMARK   85  A    between atoms: _209  and  _212
REMARK   86  A    between atoms: _212  and  _213
REMARK   87  A    between atoms: _219  and  _221
REMARK   88  A    between atoms: _221  and  _222
REMARK   89  A    between atoms: _221  and  _224
REMARK   90  A    between atoms: _224  and  _225
REMARK   91  A    between atoms: _228  and  _230
REMARK   92  A    between atoms: _230  and  _231
REMARK   93  A    between atoms: _230  and  _233
REMARK   94  A    between atoms: _233  and  _234
REMARK   95  A    between atoms: _237  and  _239
REMARK   96  A    between atoms: _239  and  _240
REMARK   97  A    between atoms: _239  and  _242
REMARK   98  A    between atoms: _242  and  _243
REMARK   99  A    between atoms: _246  and  _248
REMARK  100  A    between atoms: _248  and  _249
REMARK  101  A    between atoms: _248  and  _251
REMARK  102  A    between atoms: _254  and  _256
REMARK  103  A    between atoms: _256  and  _257
REMARK  104  A    between atoms: _256  and  _259
REMARK  105  A    between atoms: _259  and  _260
REMARK  106  A    between atoms: _265  and  _266
REMARK  107  A    between atoms: _268  and  _270
REMARK  108  A    between atoms: _270  and  _271
REMARK  109  A    between atoms: _270  and  _273
REMARK  110  A    between atoms: _275  and  _277
REMARK  111  A    between atoms: _277  and  _278
REMARK  112  A    between atoms: _280  and  _282
REMARK  113  A    between atoms: _282  and  _283
REMARK  114  A    between atoms: _282  and  _285
REMARK  115  A    between atoms: _288  and  _290
REMARK  116  A    between atoms: _290  and  _291
REMARK  117  A    between atoms: _294  and  _296
REMARK  118  A    between atoms: _296  and  _297
REMARK  119  A    between atoms: _299  and  _301
REMARK  120  A    between atoms: _301  and  _302
REMARK  121  A    between atoms: _301  and  _304
REMARK  122  A    between atoms: _304  and  _305
REMARK  123  A    between atoms: _308  and  _310
REMARK  124  A    between atoms: _310  and  _311
REMARK  125  A    between atoms: _310  and  _313
REMARK  126  A    between atoms: _316  and  _318
REMARK  127  A    between atoms: _318  and  _319
REMARK  128  A    between atoms: _321  and  _323
REMARK  129  A    between atoms: _323  and  _324
REMARK  130  A    between atoms: _323  and  _326
REMARK  131  A    between atoms: _326  and  _327
REMARK  132  A    between atoms: _327  and  _328
REMARK  133  A    between atoms: _331  and  _333
REMARK  134  A    between atoms: _333  and  _334
REMARK  135  A    between atoms: _333  and  _336
REMARK  136  A    between atoms: _339  and  _341
REMARK  137  A    between atoms: _341  and  _342
REMARK  138  A    between atoms: _341  and  _344
REMARK  139  A    between atoms: _344  and  _345
REMARK  140  A    between atoms: _348  and  _350
REMARK  141  A    between atoms: _350  and  _351
REMARK  142  A    between atoms: _350  and  _353
REMARK  143  A    between atoms: _353  and  _354
REMARK  144  A    between atoms: _357  and  _359
REMARK  145  A    between atoms: _359  and  _360
REMARK  146  A    between atoms: _359  and  _362
REMARK  147  A    between atoms: _362  and  _363
REMARK  148  A    between atoms: _366  and  _368
REMARK  149  A    between atoms: _368  and  _369
REMARK  150  A    between atoms: _368  and  _371
REMARK  151  A    between atoms: _371  and  _372
REMARK  152  A    between atoms: _377  and  _378
REMARK  153  A    between atoms: _380  and  _382
REMARK  154  A    between atoms: _382  and  _383
REMARK  155  A    between atoms: _382  and  _385
REMARK  156  A    between atoms: _388  and  _390
REMARK  157  A    between atoms: _390  and  _391
REMARK  158  A    between atoms: _394  and  _396
REMARK  159  A    between atoms: _396  and  _397
REMARK  160  A    between atoms: _396  and  _399
REMARK  161  A    between atoms: _399  and  _400
REMARK  162  A    between atoms: _400  and  _401
REMARK  163  A    between atoms: _401  and  _402
REMARK  164  A    between atoms: _411  and  _413
REMARK  165  A    between atoms: _413  and  _414
REMARK  166  A    between atoms: _413  and  _416
REMARK  167  A    between atoms: _416  and  _417
REMARK  168  A    between atoms: _417  and  _418
REMARK  169  A    between atoms: _418  and  _419
REMARK  170  A    between atoms: _428  and  _430
REMARK  171  A    between atoms: _430  and  _431
REMARK  172  A    between atoms: _430  and  _433
REMARK  173  A    between atoms: _433  and  _434
REMARK  174  A    between atoms: _437  and  _439
REMARK  175  A    between atoms: _439  and  _440
REMARK  176  A    between atoms: _442  and  _444
REMARK  177  A    between atoms: _444  and  _445
REMARK  178  A    between atoms: _444  and  _447
REMARK  179  A    between atoms: _447  and  _448
REMARK  180  A    between atoms: _448  and  _449
REMARK  181  A    between atoms: _452  and  _454
REMARK  182  A    between atoms: _454  and  _455
REMARK  183  A    between atoms: _454  and  _457
REMARK  184  A    between atoms: _457  and  _458
REMARK  185  A    between atoms: _460  and  _462
REMARK  186  A    between atoms: _462  and  _463
REMARK  187  A    between atoms: _462  and  _465
REMARK  188  A    between atoms: _465  and  _466
REMARK  189  A    between atoms: _469  and  _471
REMARK  190  A    between atoms: _471  and  _472
REMARK  191  A    between atoms: _471  and  _474
REMARK  192  A    between atoms: _474  and  _475
REMARK  193  A    between atoms: _475  and  _476
REMARK  194  A    between atoms: _481  and  _483
REMARK  195  A    between atoms: _483  and  _484
REMARK  196  A    between atoms: _483  and  _486
REMARK  197  A    between atoms: _486  and  _487
REMARK  198  A    between atoms: _492  and  _494
REMARK  199  A    between atoms: _494  and  _495
REMARK  200  A    between atoms: _494  and  _497
REMARK  201  A    between atoms: _497  and  _498
REMARK  202  A    between atoms: _501  and  _503
REMARK  203  A    between atoms: _503  and  _504
REMARK  204  A    between atoms: _503  and  _506
REMARK  205  A    between atoms: _506  and  _507
REMARK  206  A    between atoms: _507  and  _508
REMARK  207  A    between atoms: _508  and  _509
REMARK  208  A    between atoms: _518  and  _520
REMARK  209  A    between atoms: _520  and  _521
REMARK  210  A    between atoms: _520  and  _523
REMARK  211  A    between atoms: _523  and  _524
REMARK  212  A    between atoms: _527  and  _529
REMARK  213  A    between atoms: _529  and  _530
REMARK  214  A    between atoms: _529  and  _532
REMARK  215  A    between atoms: _532  and  _533
REMARK  216  A    between atoms: _536  and  _538
REMARK  217  A    between atoms: _538  and  _539
REMARK  218  A    between atoms: _538  and  _541
REMARK  219  A    between atoms: _541  and  _542
REMARK  220  A    between atoms: _547  and  _548
REMARK  221  A    between atoms: _550  and  _552
REMARK  222  A    between atoms: _552  and  _553
REMARK  223  A    between atoms: _552  and  _555
REMARK  224  A    between atoms: _558  and  _560
REMARK  225  A    between atoms: _560  and  _561
REMARK  226  A    between atoms: _560  and  _563
REMARK  227  A    between atoms: _563  and  _564
REMARK  228  A    between atoms: _570  and  _572
REMARK  229  A    between atoms: _572  and  _573
REMARK  230  A    between atoms: _572  and  _575
REMARK  231  A    between atoms: _575  and  _576
REMARK  232  A    between atoms: _579  and  _581
REMARK  233  A    between atoms: _581  and  _582
REMARK  234  A    between atoms: _585  and  _587
REMARK  235  A    between atoms: _587  and  _588
REMARK  236  A    between atoms: _591  and  _593
REMARK  237  A    between atoms: _593  and  _594
REMARK  238  A    between atoms: _593  and  _596
REMARK  239  A    between atoms: _596  and  _597
REMARK  240  A    between atoms: _602  and  _603
REMARK  241  A    between atoms: _605  and  _607
REMARK  242  A    between atoms: _607  and  _608
REMARK  243  A    between atoms: _607  and  _610
REMARK  244  A    between atoms: _610  and  _611
REMARK  245  A    between atoms: _611  and  _612
REMARK  246  A    between atoms: _612  and  _613
REMARK                            x       y       z     vdW  Elec       q    Type
REMARK                         _______ _______ _______ _____ _____    ______ ____
ROOT
ATOM      1  O   HOH     1      -3.740 -24.732   7.297  0.00  0.00    +0.000 OA
ENDROOT
TORSDOF 0
REMARK  Name = ../refined-set-2016/3tfp/3tfp_pocket.pdb
REMARK  246 active torsions:
REMARK  status: ('A' for Active; 'I' for Inactive)
REMARK    1  A    between atoms: _1  and  _3
REMARK    2  A    between atoms: _3  and  _4
REMARK    3  A    between atoms: _3  and  _6
REMARK    4  A    between atoms: _6  and  _7
REMARK    5  A    between atoms: _10  and  _12
REMARK    6  A    between atoms: _12  and  _13
REMARK    7  A    between atoms: _12  and  _15
REMARK    8  A    between atoms: _15  and  _16
REMARK    9  A    between atoms: _16  and  _17
REMARK   10  A    between atoms: _19  and  _21
REMARK   11  A    between atoms: _21  and  _22
REMARK   12  A    between atoms: _21  and  _24
REMARK   13  A    between atoms: _24  and  _25
REMARK   14  A    between atoms: _30  and  _32
REMARK   15  A    between atoms: _32  and  _33
REMARK   16  A    between atoms: _32  and  _35
REMARK   17  A    between atoms: _35  and  _36
REMARK   18  A    between atoms: _38  and  _40
REMARK   19  A    between atoms: _40  and  _41
REMARK   20  A    between atoms: _40  and  _43
REMARK   21  A    between atoms: _43  and  _44
REMARK   22  A    between atoms: _50  and  _52
REMARK   23  A    between atoms: _52  and  _53
REMARK   24  A    between atoms: _52  and  _55
REMARK   25  A    between atoms: _55  and  _56
REMARK   26  A    between atoms: _58  and  _60
REMARK   27  A    between atoms: _60  and  _61
REMARK   28  A    between atoms: _60  and  _63
REMARK   29  A    between atoms: _63  and  _64
REMARK   30  A    between atoms: _70  and  _72
REMARK   31  A    between atoms: _72  and  _73
REMARK   32  A    between atoms: _76  and  _78
REMARK   33  A    between atoms: _78  and  _79
REMARK   34  A    between atoms: _78  and  _81
REMARK   35  A    between atoms: _84  and  _86
REMARK   36  A    between atoms: _86  and  _87
REMARK   37  A    between atoms: _86  and  _89
REMARK   38  A    between atoms: _89  and  _90
REMARK   39  A    between atoms: _100  and  _102
REMARK   40  A    between atoms: _102  and  _103
REMARK   41  A    between atoms: _106  and  _108
REMARK   42  A    between atoms: _108  and  _109
REMARK   43  A    between atoms: _108  and  _111
REMARK   44  A    between atoms: _111  and  _112
REMARK   45  A    between atoms: _115  and  _117
REMARK   46  A    between atoms: _117  and  _118
REMARK   47  A    between atoms: _117  and  _120
REMARK   48  A    between atoms: _120  and  _121
REMARK   49  A    between atoms: _126  and  _127
REMARK   50  A    between atoms: _129  and  _131
REMARK   51  A    between atoms: _131  and  _132
REMARK   52  A    between atoms: _135  and  _137
REMARK   53  A    between atoms: _137  and  _138
REMARK   54  A    between atoms: _137  and  _140
REMARK   55  A    between atoms: _143  and  _145
REMARK   56  A    between atoms: _145  and  _146
REMARK   57  A    between atoms: _145  and  _148
REMARK   58  A    between atoms: _150  and  _152
REMARK   59  A    between atoms: _152  and  _153
REMARK   60  A    between atoms: _152  and  _155
REMARK   61  A    between atoms: _155  and  _156
REMARK   62  A    between atoms: _156  and  _157
REMARK   63  A    between atoms: _157  and  _158
REMARK   64  A    between atoms: _167  and  _169
REMARK   65  A    between atoms: _169  and  _170
REMARK   66  A    between atoms: _169  and  _172
REMARK   67  A    between atoms: _172  and  _173
REMARK   68  A    between atoms: _173  and  _174
REMARK   69  A    between atoms: _174  and  _175
REMARK   70  A    between atoms: _175  and  _176
REMARK   71  A    between atoms: _180  and  _182
REMARK   72  A    between atoms: _182  and  _183
REMARK   73  A    between atoms: _182  and  _185
REMARK   74  A    between atoms: _185  and  _186
REMARK   75  A    between atoms: _189  and  _191
REMARK   76  A    between atoms: _191  and  _192
REMARK   77  A    between atoms: _191  and  _194
REMARK   78  A    between atoms: _194  and  _195
REMARK   79  A    between atoms: _198  and  _200
REMARK   80  A    between atoms: _200  and  _201
REMARK   81  A    between atoms: _200  and  _203
REMARK   82  A    between atoms: _203  and  _204
REMARK   83  A    between atoms: _207  and  _209
REMARK   84  A    between atoms: _209  and  _210
REMARK   85  A    between atoms: _209  and  _212
REMARK   86  A    between atoms: _212  and  _213
REMARK   87  A    between atoms: _219  and  _221
REMARK   88  A    between atoms: _221  and  _222
REMARK   89  A    between atoms: _221  and  _224
REMARK   90  A    between atoms: _224  and  _225
REMARK   91  A    between atoms: _228  and  _230
REMARK   92  A    between atoms: _230  and  _231
REMARK   93  A    between atoms: _230  and  _233
REMARK   94  A    between atoms: _233  and  _234
REMARK   95  A    between atoms: _237  and  _239
REMARK   96  A    between atoms: _239  and  _240
REMARK   97  A    between atoms: _239  and  _242
REMARK   98  A    between atoms: _242  and  _243
REMARK   99  A    between atoms: _246  and  _248
REMARK  100  A    between atoms: _248  and  _249
REMARK  101  A    between atoms: _248  and  _251
REMARK  102  A    between atoms: _254  and  _256
REMARK  103  A    between atoms: _256  and  _257
REMARK  104  A    between atoms: _256  and  _259
REMARK  105  A    between atoms: _259  and  _260
REMARK  106  A    between atoms: _265  and  _266
REMARK  107  A    between atoms: _268  and  _270
REMARK  108  A    between atoms: _270  and  _271
REMARK  109  A    between atoms: _270  and  _273
REMARK  110  A    between atoms: _275  and  _277
REMARK  111  A    between atoms: _277  and  _278
REMARK  112  A    between atoms: _280  and  _282
REMARK  113  A    between atoms: _282  and  _283
REMARK  114  A    between atoms: _282  and  _285
REMARK  115  A    between atoms: _288  and  _290
REMARK  116  A    between atoms: _290  and  _291
REMARK  117  A    between atoms: _294  and  _296
REMARK  118  A    between atoms: _296  and  _297
REMARK  119  A    between atoms: _299  and  _301
REMARK  120  A    between atoms: _301  and  _302
REMARK  121  A    between atoms: _301  and  _304
REMARK  122  A    between atoms: _304  and  _305
REMARK  123  A    between atoms: _308  and  _310
REMARK  124  A    between atoms: _310  and  _311
REMARK  125  A    between atoms: _310  and  _313
REMARK  126  A    between atoms: _316  and  _318
REMARK  127  A    between atoms: _318  and  _319
REMARK  128  A    between atoms: _321  and  _323
REMARK  129  A    between atoms: _323  and  _324
REMARK  130  A    between atoms: _323  and  _326
REMARK  131  A    between atoms: _326  and  _327
REMARK  132  A    between atoms: _327  and  _328
REMARK  133  A    between atoms: _331  and  _333
REMARK  134  A    between atoms: _333  and  _334
REMARK  135  A    between atoms: _333  and  _336
REMARK  136  A    between atoms: _339  and  _341
REMARK  137  A    between atoms: _341  and  _342
REMARK  138  A    between atoms: _341  and  _344
REMARK  139  A    between atoms: _344  and  _345
REMARK  140  A    between atoms: _348  and  _350
REMARK  141  A    between atoms: _350  and  _351
REMARK  142  A    between atoms: _350  and  _353
REMARK  143  A    between atoms: _353  and  _354
REMARK  144  A    between atoms: _357  and  _359
REMARK  145  A    between atoms: _359  and  _360
REMARK  146  A    between atoms: _359  and  _362
REMARK  147  A    between atoms: _362  and  _363
REMARK  148  A    between atoms: _366  and  _368
REMARK  149  A    between atoms: _368  and  _369
REMARK  150  A    between atoms: _368  and  _371
REMARK  151  A    between atoms: _371  and  _372
REMARK  152  A    between atoms: _377  and  _378
REMARK  153  A    between atoms: _380  and  _382
REMARK  154  A    between atoms: _382  and  _383
REMARK  155  A    between atoms: _382  and  _385
REMARK  156  A    between atoms: _388  and  _390
REMARK  157  A    between atoms: _390  and  _391
REMARK  158  A    between atoms: _394  and  _396
REMARK  159  A    between atoms: _396  and  _397
REMARK  160  A    between atoms: _396  and  _399
REMARK  161  A    between atoms: _399  and  _400
REMARK  162  A    between atoms: _400  and  _401
REMARK  163  A    between atoms: _401  and  _402
REMARK  164  A    between atoms: _411  and  _413
REMARK  165  A    between atoms: _413  and  _414
REMARK  166  A    between atoms: _413  and  _416
REMARK  167  A    between atoms: _416  and  _417
REMARK  168  A    between atoms: _417  and  _418
REMARK  169  A    between atoms: _418  and  _419
REMARK  170  A    between atoms: _428  and  _430
REMARK  171  A    between atoms: _430  and  _431
REMARK  172  A    between atoms: _430  and  _433
REMARK  173  A    between atoms: _433  and  _434
REMARK  174  A    between atoms: _437  and  _439
REMARK  175  A    between atoms: _439  and  _440
REMARK  176  A    between atoms: _442  and  _444
REMARK  177  A    between atoms: _444  and  _445
REMARK  178  A    between atoms: _444  and  _447
REMARK  179  A    between atoms: _447  and  _448
REMARK  180  A    between atoms: _448  and  _449
REMARK  181  A    between atoms: _452  and  _454
REMARK  182  A    between atoms: _454  and  _455
REMARK  183  A    between atoms: _454  and  _457
REMARK  184  A    between atoms: _457  and  _458
REMARK  185  A    between atoms: _460  and  _462
REMARK  186  A    between atoms: _462  and  _463
REMARK  187  A    between atoms: _462  and  _465
REMARK  188  A    between atoms: _465  and  _466
REMARK  189  A    between atoms: _469  and  _471
REMARK  190  A    between atoms: _471  and  _472
REMARK  191  A    between atoms: _471  and  _474
REMARK  192  A    between atoms: _474  and  _475
REMARK  193  A    between atoms: _475  and  _476
REMARK  194  A    between atoms: _481  and  _483
REMARK  195  A    between atoms: _483  and  _484
REMARK  196  A    between atoms: _483  and  _486
REMARK  197  A    between atoms: _486  and  _487
REMARK  198  A    between atoms: _492  and  _494
REMARK  199  A    between atoms: _494  and  _495
REMARK  200  A    between atoms: _494  and  _497
REMARK  201  A    between atoms: _497  and  _498
REMARK  202  A    between atoms: _501  and  _503
REMARK  203  A    between atoms: _503  and  _504
REMARK  204  A    between atoms: _503  and  _506
REMARK  205  A    between atoms: _506  and  _507
REMARK  206  A    between atoms: _507  and  _508
REMARK  207  A    between atoms: _508  and  _509
REMARK  208  A    between atoms: _518  and  _520
REMARK  209  A    between atoms: _520  and  _521
REMARK  210  A    between atoms: _520  and  _523
REMARK  211  A    between atoms: _523  and  _524
REMARK  212  A    between atoms: _527  and  _529
REMARK  213  A    between atoms: _529  and  _530
REMARK  214  A    between atoms: _529  and  _532
REMARK  215  A    between atoms: _532  and  _533
REMARK  216  A    between atoms: _536  and  _538
REMARK  217  A    between atoms: _538  and  _539
REMARK  218  A    between atoms: _538  and  _541
REMARK  219  A    between atoms: _541  and  _542
REMARK  220  A    between atoms: _547  and  _548
REMARK  221  A    between atoms: _550  and  _552
REMARK  222  A    between atoms: _552  and  _553
REMARK  223  A    between atoms: _552  and  _555
REMARK  224  A    between atoms: _558  and  _560
REMARK  225  A    between atoms: _560  and  _561
REMARK  226  A    between atoms: _560  and  _563
REMARK  227  A    between atoms: _563  and  _564
REMARK  228  A    between atoms: _570  and  _572
REMARK  229  A    between atoms: _572  and  _573
REMARK  230  A    between atoms: _572  and  _575
REMARK  231  A    between atoms: _575  and  _576
REMARK  232  A    between atoms: _579  and  _581
REMARK  233  A    between atoms: _581  and  _582
REMARK  234  A    between atoms: _585  and  _587
REMARK  235  A    between atoms: _587  and  _588
REMARK  236  A    between atoms: _591  and  _593
REMARK  237  A    between atoms: _593  and  _594
REMARK  238  A    between atoms: _593  and  _596
REMARK  239  A    between atoms: _596  and  _597
REMARK  240  A    between atoms: _602  and  _603
REMARK  241  A    between atoms: _605  and  _607
REMARK  242  A    between atoms: _607  and  _608
REMARK  243  A    between atoms: _607  and  _610
REMARK  244  A    between atoms: _610  and  _611
REMARK  245  A    between atoms: _611  and  _612
REMARK  246  A    between atoms: _612  and  _613
REMARK                            x       y       z     vdW  Elec       q    Type
REMARK                         _______ _______ _______ _____ _____    ______ ____
ROOT
ATOM      1  O   HOH     1      -5.857 -21.801   6.628  0.00  0.00    +0.000 OA
ENDROOT
TORSDOF 0
REMARK  Name = ../refined-set-2016/3tfp/3tfp_pocket.pdb
REMARK  246 active torsions:
REMARK  status: ('A' for Active; 'I' for Inactive)
REMARK    1  A    between atoms: _1  and  _3
REMARK    2  A    between atoms: _3  and  _4
REMARK    3  A    between atoms: _3  and  _6
REMARK    4  A    between atoms: _6  and  _7
REMARK    5  A    between atoms: _10  and  _12
REMARK    6  A    between atoms: _12  and  _13
REMARK    7  A    between atoms: _12  and  _15
REMARK    8  A    between atoms: _15  and  _16
REMARK    9  A    between atoms: _16  and  _17
REMARK   10  A    between atoms: _19  and  _21
REMARK   11  A    between atoms: _21  and  _22
REMARK   12  A    between atoms: _21  and  _24
REMARK   13  A    between atoms: _24  and  _25
REMARK   14  A    between atoms: _30  and  _32
REMARK   15  A    between atoms: _32  and  _33
REMARK   16  A    between atoms: _32  and  _35
REMARK   17  A    between atoms: _35  and  _36
REMARK   18  A    between atoms: _38  and  _40
REMARK   19  A    between atoms: _40  and  _41
REMARK   20  A    between atoms: _40  and  _43
REMARK   21  A    between atoms: _43  and  _44
REMARK   22  A    between atoms: _50  and  _52
REMARK   23  A    between atoms: _52  and  _53
REMARK   24  A    between atoms: _52  and  _55
REMARK   25  A    between atoms: _55  and  _56
REMARK   26  A    between atoms: _58  and  _60
REMARK   27  A    between atoms: _60  and  _61
REMARK   28  A    between atoms: _60  and  _63
REMARK   29  A    between atoms: _63  and  _64
REMARK   30  A    between atoms: _70  and  _72
REMARK   31  A    between atoms: _72  and  _73
REMARK   32  A    between atoms: _76  and  _78
REMARK   33  A    between atoms: _78  and  _79
REMARK   34  A    between atoms: _78  and  _81
REMARK   35  A    between atoms: _84  and  _86
REMARK   36  A    between atoms: _86  and  _87
REMARK   37  A    between atoms: _86  and  _89
REMARK   38  A    between atoms: _89  and  _90
REMARK   39  A    between atoms: _100  and  _102
REMARK   40  A    between atoms: _102  and  _103
REMARK   41  A    between atoms: _106  and  _108
REMARK   42  A    between atoms: _108  and  _109
REMARK   43  A    between atoms: _108  and  _111
REMARK   44  A    between atoms: _111  and  _112
REMARK   45  A    between atoms: _115  and  _117
REMARK   46  A    between atoms: _117  and  _118
REMARK   47  A    between atoms: _117  and  _120
REMARK   48  A    between atoms: _120  and  _121
REMARK   49  A    between atoms: _126  and  _127
REMARK   50  A    between atoms: _129  and  _131
REMARK   51  A    between atoms: _131  and  _132
REMARK   52  A    between atoms: _135  and  _137
REMARK   53  A    between atoms: _137  and  _138
REMARK   54  A    between atoms: _137  and  _140
REMARK   55  A    between atoms: _143  and  _145
REMARK   56  A    between atoms: _145  and  _146
REMARK   57  A    between atoms: _145  and  _148
REMARK   58  A    between atoms: _150  and  _152
REMARK   59  A    between atoms: _152  and  _153
REMARK   60  A    between atoms: _152  and  _155
REMARK   61  A    between atoms: _155  and  _156
REMARK   62  A    between atoms: _156  and  _157
REMARK   63  A    between atoms: _157  and  _158
REMARK   64  A    between atoms: _167  and  _169
REMARK   65  A    between atoms: _169  and  _170
REMARK   66  A    between atoms: _169  and  _172
REMARK   67  A    between atoms: _172  and  _173
REMARK   68  A    between atoms: _173  and  _174
REMARK   69  A    between atoms: _174  and  _175
REMARK   70  A    between atoms: _175  and  _176
REMARK   71  A    between atoms: _180  and  _182
REMARK   72  A    between atoms: _182  and  _183
REMARK   73  A    between atoms: _182  and  _185
REMARK   74  A    between atoms: _185  and  _186
REMARK   75  A    between atoms: _189  and  _191
REMARK   76  A    between atoms: _191  and  _192
REMARK   77  A    between atoms: _191  and  _194
REMARK   78  A    between atoms: _194  and  _195
REMARK   79  A    between atoms: _198  and  _200
REMARK   80  A    between atoms: _200  and  _201
REMARK   81  A    between atoms: _200  and  _203
REMARK   82  A    between atoms: _203  and  _204
REMARK   83  A    between atoms: _207  and  _209
REMARK   84  A    between atoms: _209  and  _210
REMARK   85  A    between atoms: _209  and  _212
REMARK   86  A    between atoms: _212  and  _213
REMARK   87  A    between atoms: _219  and  _221
REMARK   88  A    between atoms: _221  and  _222
REMARK   89  A    between atoms: _221  and  _224
REMARK   90  A    between atoms: _224  and  _225
REMARK   91  A    between atoms: _228  and  _230
REMARK   92  A    between atoms: _230  and  _231
REMARK   93  A    between atoms: _230  and  _233
REMARK   94  A    between atoms: _233  and  _234
REMARK   95  A    between atoms: _237  and  _239
REMARK   96  A    between atoms: _239  and  _240
REMARK   97  A    between atoms: _239  and  _242
REMARK   98  A    between atoms: _242  and  _243
REMARK   99  A    between atoms: _246  and  _248
REMARK  100  A    between atoms: _248  and  _249
REMARK  101  A    between atoms: _248  and  _251
REMARK  102  A    between atoms: _254  and  _256
REMARK  103  A    between atoms: _256  and  _257
REMARK  104  A    between atoms: _256  and  _259
REMARK  105  A    between atoms: _259  and  _260
REMARK  106  A    between atoms: _265  and  _266
REMARK  107  A    between atoms: _268  and  _270
REMARK  108  A    between atoms: _270  and  _271
REMARK  109  A    between atoms: _270  and  _273
REMARK  110  A    between atoms: _275  and  _277
REMARK  111  A    between atoms: _277  and  _278
REMARK  112  A    between atoms: _280  and  _282
REMARK  113  A    between atoms: _282  and  _283
REMARK  114  A    between atoms: _282  and  _285
REMARK  115  A    between atoms: _288  and  _290
REMARK  116  A    between atoms: _290  and  _291
REMARK  117  A    between atoms: _294  and  _296
REMARK  118  A    between atoms: _296  and  _297
REMARK  119  A    between atoms: _299  and  _301
REMARK  120  A    between atoms: _301  and  _302
REMARK  121  A    between atoms: _301  and  _304
REMARK  122  A    between atoms: _304  and  _305
REMARK  123  A    between atoms: _308  and  _310
REMARK  124  A    between atoms: _310  and  _311
REMARK  125  A    between atoms: _310  and  _313
REMARK  126  A    between atoms: _316  and  _318
REMARK  127  A    between atoms: _318  and  _319
REMARK  128  A    between atoms: _321  and  _323
REMARK  129  A    between atoms: _323  and  _324
REMARK  130  A    between atoms: _323  and  _326
REMARK  131  A    between atoms: _326  and  _327
REMARK  132  A    between atoms: _327  and  _328
REMARK  133  A    between atoms: _331  and  _333
REMARK  134  A    between atoms: _333  and  _334
REMARK  135  A    between atoms: _333  and  _336
REMARK  136  A    between atoms: _339  and  _341
REMARK  137  A    between atoms: _341  and  _342
REMARK  138  A    between atoms: _341  and  _344
REMARK  139  A    between atoms: _344  and  _345
REMARK  140  A    between atoms: _348  and  _350
REMARK  141  A    between atoms: _350  and  _351
REMARK  142  A    between atoms: _350  and  _353
REMARK  143  A    between atoms: _353  and  _354
REMARK  144  A    between atoms: _357  and  _359
REMARK  145  A    between atoms: _359  and  _360
REMARK  146  A    between atoms: _359  and  _362
REMARK  147  A    between atoms: _362  and  _363
REMARK  148  A    between atoms: _366  and  _368
REMARK  149  A    between atoms: _368  and  _369
REMARK  150  A    between atoms: _368  and  _371
REMARK  151  A    between atoms: _371  and  _372
REMARK  152  A    between atoms: _377  and  _378
REMARK  153  A    between atoms: _380  and  _382
REMARK  154  A    between atoms: _382  and  _383
REMARK  155  A    between atoms: _382  and  _385
REMARK  156  A    between atoms: _388  and  _390
REMARK  157  A    between atoms: _390  and  _391
REMARK  158  A    between atoms: _394  and  _396
REMARK  159  A    between atoms: _396  and  _397
REMARK  160  A    between atoms: _396  and  _399
REMARK  161  A    between atoms: _399  and  _400
REMARK  162  A    between atoms: _400  and  _401
REMARK  163  A    between atoms: _401  and  _402
REMARK  164  A    between atoms: _411  and  _413
REMARK  165  A    between atoms: _413  and  _414
REMARK  166  A    between atoms: _413  and  _416
REMARK  167  A    between atoms: _416  and  _417
REMARK  168  A    between atoms: _417  and  _418
REMARK  169  A    between atoms: _418  and  _419
REMARK  170  A    between atoms: _428  and  _430
REMARK  171  A    between atoms: _430  and  _431
REMARK  172  A    between atoms: _430  and  _433
REMARK  173  A    between atoms: _433  and  _434
REMARK  174  A    between atoms: _437  and  _439
REMARK  175  A    between atoms: _439  and  _440
REMARK  176  A    between atoms: _442  and  _444
REMARK  177  A    between atoms: _444  and  _445
REMARK  178  A    between atoms: _444  and  _447
REMARK  179  A    between atoms: _447  and  _448
REMARK  180  A    between atoms: _448  and  _449
REMARK  181  A    between atoms: _452  and  _454
REMARK  182  A    between atoms: _454  and  _455
REMARK  183  A    between atoms: _454  and  _457
REMARK  184  A    between atoms: _457  and  _458
REMARK  185  A    between atoms: _460  and  _462
REMARK  186  A    between atoms: _462  and  _463
REMARK  187  A    between atoms: _462  and  _465
REMARK  188  A    between atoms: _465  and  _466
REMARK  189  A    between atoms: _469  and  _471
REMARK  190  A    between atoms: _471  and  _472
REMARK  191  A    between atoms: _471  and  _474
REMARK  192  A    between atoms: _474  and  _475
REMARK  193  A    between atoms: _475  and  _476
REMARK  194  A    between atoms: _481  and  _483
REMARK  195  A    between atoms: _483  and  _484
REMARK  196  A    between atoms: _483  and  _486
REMARK  197  A    between atoms: _486  and  _487
REMARK  198  A    between atoms: _492  and  _494
REMARK  199  A    between atoms: _494  and  _495
REMARK  200  A    between atoms: _494  and  _497
REMARK  201  A    between atoms: _497  and  _498
REMARK  202  A    between atoms: _501  and  _503
REMARK  203  A    between atoms: _503  and  _504
REMARK  204  A    between atoms: _503  and  _506
REMARK  205  A    between atoms: _506  and  _507
REMARK  206  A    between atoms: _507  and  _508
REMARK  207  A    between atoms: _508  and  _509
REMARK  208  A    between atoms: _518  and  _520
REMARK  209  A    between atoms: _520  and  _521
REMARK  210  A    between atoms: _520  and  _523
REMARK  211  A    between atoms: _523  and  _524
REMARK  212  A    between atoms: _527  and  _529
REMARK  213  A    between atoms: _529  and  _530
REMARK  214  A    between atoms: _529  and  _532
REMARK  215  A    between atoms: _532  and  _533
REMARK  216  A    between atoms: _536  and  _538
REMARK  217  A    between atoms: _538  and  _539
REMARK  218  A    between atoms: _538  and  _541
REMARK  219  A    between atoms: _541  and  _542
REMARK  220  A    between atoms: _547  and  _548
REMARK  221  A    between atoms: _550  and  _552
REMARK  222  A    between atoms: _552  and  _553
REMARK  223  A    between atoms: _552  and  _555
REMARK  224  A    between atoms: _558  and  _560
REMARK  225  A    between atoms: _560  and  _561
REMARK  226  A    between atoms: _560  and  _563
REMARK  227  A    between atoms: _563  and  _564
REMARK  228  A    between atoms: _570  and  _572
REMARK  229  A    between atoms: _572  and  _573
REMARK  230  A    between atoms: _572  and  _575
REMARK  231  A    between atoms: _575  and  _576
REMARK  232  A    between atoms: _579  and  _581
REMARK  233  A    between atoms: _581  and  _582
REMARK  234  A    between atoms: _585  and  _587
REMARK  235  A    between atoms: _587  and  _588
REMARK  236  A    between atoms: _591  and  _593
REMARK  237  A    between atoms: _593  and  _594
REMARK  238  A    between atoms: _593  and  _596
REMARK  239  A    between atoms: _596  and  _597
REMARK  240  A    between atoms: _602  and  _603
REMARK  241  A    between atoms: _605  and  _607
REMARK  242  A    between atoms: _607  and  _608
REMARK  243  A    between atoms: _607  and  _610
REMARK  244  A    between atoms: _610  and  _611
REMARK  245  A    between atoms: _611  and  _612
REMARK  246  A    between atoms: _612  and  _613
REMARK                            x       y       z     vdW  Elec       q    Type
REMARK                         _______ _______ _______ _____ _____    ______ ____
ROOT
ATOM      1  O   HOH     1      -7.471 -24.423  15.116  0.00  0.00    +0.000 OA
ENDROOT
TORSDOF 0
REMARK  Name = ../refined-set-2016/3tfp/3tfp_pocket.pdb
REMARK  246 active torsions:
REMARK  status: ('A' for Active; 'I' for Inactive)
REMARK    1  A    between atoms: _1  and  _3
REMARK    2  A    between atoms: _3  and  _4
REMARK    3  A    between atoms: _3  and  _6
REMARK    4  A    between atoms: _6  and  _7
REMARK    5  A    between atoms: _10  and  _12
REMARK    6  A    between atoms: _12  and  _13
REMARK    7  A    between atoms: _12  and  _15
REMARK    8  A    between atoms: _15  and  _16
REMARK    9  A    between atoms: _16  and  _17
REMARK   10  A    between atoms: _19  and  _21
REMARK   11  A    between atoms: _21  and  _22
REMARK   12  A    between atoms: _21  and  _24
REMARK   13  A    between atoms: _24  and  _25
REMARK   14  A    between atoms: _30  and  _32
REMARK   15  A    between atoms: _32  and  _33
REMARK   16  A    between atoms: _32  and  _35
REMARK   17  A    between atoms: _35  and  _36
REMARK   18  A    between atoms: _38  and  _40
REMARK   19  A    between atoms: _40  and  _41
REMARK   20  A    between atoms: _40  and  _43
REMARK   21  A    between atoms: _43  and  _44
REMARK   22  A    between atoms: _50  and  _52
REMARK   23  A    between atoms: _52  and  _53
REMARK   24  A    between atoms: _52  and  _55
REMARK   25  A    between atoms: _55  and  _56
REMARK   26  A    between atoms: _58  and  _60
REMARK   27  A    between atoms: _60  and  _61
REMARK   28  A    between atoms: _60  and  _63
REMARK   29  A    between atoms: _63  and  _64
REMARK   30  A    between atoms: _70  and  _72
REMARK   31  A    between atoms: _72  and  _73
REMARK   32  A    between atoms: _76  and  _78
REMARK   33  A    between atoms: _78  and  _79
REMARK   34  A    between atoms: _78  and  _81
REMARK   35  A    between atoms: _84  and  _86
REMARK   36  A    between atoms: _86  and  _87
REMARK   37  A    between atoms: _86  and  _89
REMARK   38  A    between atoms: _89  and  _90
REMARK   39  A    between atoms: _100  and  _102
REMARK   40  A    between atoms: _102  and  _103
REMARK   41  A    between atoms: _106  and  _108
REMARK   42  A    between atoms: _108  and  _109
REMARK   43  A    between atoms: _108  and  _111
REMARK   44  A    between atoms: _111  and  _112
REMARK   45  A    between atoms: _115  and  _117
REMARK   46  A    between atoms: _117  and  _118
REMARK   47  A    between atoms: _117  and  _120
REMARK   48  A    between atoms: _120  and  _121
REMARK   49  A    between atoms: _126  and  _127
REMARK   50  A    between atoms: _129  and  _131
REMARK   51  A    between atoms: _131  and  _132
REMARK   52  A    between atoms: _135  and  _137
REMARK   53  A    between atoms: _137  and  _138
REMARK   54  A    between atoms: _137  and  _140
REMARK   55  A    between atoms: _143  and  _145
REMARK   56  A    between atoms: _145  and  _146
REMARK   57  A    between atoms: _145  and  _148
REMARK   58  A    between atoms: _150  and  _152
REMARK   59  A    between atoms: _152  and  _153
REMARK   60  A    between atoms: _152  and  _155
REMARK   61  A    between atoms: _155  and  _156
REMARK   62  A    between atoms: _156  and  _157
REMARK   63  A    between atoms: _157  and  _158
REMARK   64  A    between atoms: _167  and  _169
REMARK   65  A    between atoms: _169  and  _170
REMARK   66  A    between atoms: _169  and  _172
REMARK   67  A    between atoms: _172  and  _173
REMARK   68  A    between atoms: _173  and  _174
REMARK   69  A    between atoms: _174  and  _175
REMARK   70  A    between atoms: _175  and  _176
REMARK   71  A    between atoms: _180  and  _182
REMARK   72  A    between atoms: _182  and  _183
REMARK   73  A    between atoms: _182  and  _185
REMARK   74  A    between atoms: _185  and  _186
REMARK   75  A    between atoms: _189  and  _191
REMARK   76  A    between atoms: _191  and  _192
REMARK   77  A    between atoms: _191  and  _194
REMARK   78  A    between atoms: _194  and  _195
REMARK   79  A    between atoms: _198  and  _200
REMARK   80  A    between atoms: _200  and  _201
REMARK   81  A    between atoms: _200  and  _203
REMARK   82  A    between atoms: _203  and  _204
REMARK   83  A    between atoms: _207  and  _209
REMARK   84  A    between atoms: _209  and  _210
REMARK   85  A    between atoms: _209  and  _212
REMARK   86  A    between atoms: _212  and  _213
REMARK   87  A    between atoms: _219  and  _221
REMARK   88  A    between atoms: _221  and  _222
REMARK   89  A    between atoms: _221  and  _224
REMARK   90  A    between atoms: _224  and  _225
REMARK   91  A    between atoms: _228  and  _230
REMARK   92  A    between atoms: _230  and  _231
REMARK   93  A    between atoms: _230  and  _233
REMARK   94  A    between atoms: _233  and  _234
REMARK   95  A    between atoms: _237  and  _239
REMARK   96  A    between atoms: _239  and  _240
REMARK   97  A    between atoms: _239  and  _242
REMARK   98  A    between atoms: _242  and  _243
REMARK   99  A    between atoms: _246  and  _248
REMARK  100  A    between atoms: _248  and  _249
REMARK  101  A    between atoms: _248  and  _251
REMARK  102  A    between atoms: _254  and  _256
REMARK  103  A    between atoms: _256  and  _257
REMARK  104  A    between atoms: _256  and  _259
REMARK  105  A    between atoms: _259  and  _260
REMARK  106  A    between atoms: _265  and  _266
REMARK  107  A    between atoms: _268  and  _270
REMARK  108  A    between atoms: _270  and  _271
REMARK  109  A    between atoms: _270  and  _273
REMARK  110  A    between atoms: _275  and  _277
REMARK  111  A    between atoms: _277  and  _278
REMARK  112  A    between atoms: _280  and  _282
REMARK  113  A    between atoms: _282  and  _283
REMARK  114  A    between atoms: _282  and  _285
REMARK  115  A    between atoms: _288  and  _290
REMARK  116  A    between atoms: _290  and  _291
REMARK  117  A    between atoms: _294  and  _296
REMARK  118  A    between atoms: _296  and  _297
REMARK  119  A    between atoms: _299  and  _301
REMARK  120  A    between atoms: _301  and  _302
REMARK  121  A    between atoms: _301  and  _304
REMARK  122  A    between atoms: _304  and  _305
REMARK  123  A    between atoms: _308  and  _310
REMARK  124  A    between atoms: _310  and  _311
REMARK  125  A    between atoms: _310  and  _313
REMARK  126  A    between atoms: _316  and  _318
REMARK  127  A    between atoms: _318  and  _319
REMARK  128  A    between atoms: _321  and  _323
REMARK  129  A    between atoms: _323  and  _324
REMARK  130  A    between atoms: _323  and  _326
REMARK  131  A    between atoms: _326  and  _327
REMARK  132  A    between atoms: _327  and  _328
REMARK  133  A    between atoms: _331  and  _333
REMARK  134  A    between atoms: _333  and  _334
REMARK  135  A    between atoms: _333  and  _336
REMARK  136  A    between atoms: _339  and  _341
REMARK  137  A    between atoms: _341  and  _342
REMARK  138  A    between atoms: _341  and  _344
REMARK  139  A    between atoms: _344  and  _345
REMARK  140  A    between atoms: _348  and  _350
REMARK  141  A    between atoms: _350  and  _351
REMARK  142  A    between atoms: _350  and  _353
REMARK  143  A    between atoms: _353  and  _354
REMARK  144  A    between atoms: _357  and  _359
REMARK  145  A    between atoms: _359  and  _360
REMARK  146  A    between atoms: _359  and  _362
REMARK  147  A    between atoms: _362  and  _363
REMARK  148  A    between atoms: _366  and  _368
REMARK  149  A    between atoms: _368  and  _369
REMARK  150  A    between atoms: _368  and  _371
REMARK  151  A    between atoms: _371  and  _372
REMARK  152  A    between atoms: _377  and  _378
REMARK  153  A    between atoms: _380  and  _382
REMARK  154  A    between atoms: _382  and  _383
REMARK  155  A    between atoms: _382  and  _385
REMARK  156  A    between atoms: _388  and  _390
REMARK  157  A    between atoms: _390  and  _391
REMARK  158  A    between atoms: _394  and  _396
REMARK  159  A    between atoms: _396  and  _397
REMARK  160  A    between atoms: _396  and  _399
REMARK  161  A    between atoms: _399  and  _400
REMARK  162  A    between atoms: _400  and  _401
REMARK  163  A    between atoms: _401  and  _402
REMARK  164  A    between atoms: _411  and  _413
REMARK  165  A    between atoms: _413  and  _414
REMARK  166  A    between atoms: _413  and  _416
REMARK  167  A    between atoms: _416  and  _417
REMARK  168  A    between atoms: _417  and  _418
REMARK  169  A    between atoms: _418  and  _419
REMARK  170  A    between atoms: _428  and  _430
REMARK  171  A    between atoms: _430  and  _431
REMARK  172  A    between atoms: _430  and  _433
REMARK  173  A    between atoms: _433  and  _434
REMARK  174  A    between atoms: _437  and  _439
REMARK  175  A    between atoms: _439  and  _440
REMARK  176  A    between atoms: _442  and  _444
REMARK  177  A    between atoms: _444  and  _445
REMARK  178  A    between atoms: _444  and  _447
REMARK  179  A    between atoms: _447  and  _448
REMARK  180  A    between atoms: _448  and  _449
REMARK  181  A    between atoms: _452  and  _454
REMARK  182  A    between atoms: _454  and  _455
REMARK  183  A    between atoms: _454  and  _457
REMARK  184  A    between atoms: _457  and  _458
REMARK  185  A    between atoms: _460  and  _462
REMARK  186  A    between atoms: _462  and  _463
REMARK  187  A    between atoms: _462  and  _465
REMARK  188  A    between atoms: _465  and  _466
REMARK  189  A    between atoms: _469  and  _471
REMARK  190  A    between atoms: _471  and  _472
REMARK  191  A    between atoms: _471  and  _474
REMARK  192  A    between atoms: _474  and  _475
REMARK  193  A    between atoms: _475  and  _476
REMARK  194  A    between atoms: _481  and  _483
REMARK  195  A    between atoms: _483  and  _484
REMARK  196  A    between atoms: _483  and  _486
REMARK  197  A    between atoms: _486  and  _487
REMARK  198  A    between atoms: _492  and  _494
REMARK  199  A    between atoms: _494  and  _495
REMARK  200  A    between atoms: _494  and  _497
REMARK  201  A    between atoms: _497  and  _498
REMARK  202  A    between atoms: _501  and  _503
REMARK  203  A    between atoms: _503  and  _504
REMARK  204  A    between atoms: _503  and  _506
REMARK  205  A    between atoms: _506  and  _507
REMARK  206  A    between atoms: _507  and  _508
REMARK  207  A    between atoms: _508  and  _509
REMARK  208  A    between atoms: _518  and  _520
REMARK  209  A    between atoms: _520  and  _521
REMARK  210  A    between atoms: _520  and  _523
REMARK  211  A    between atoms: _523  and  _524
REMARK  212  A    between atoms: _527  and  _529
REMARK  213  A    between atoms: _529  and  _530
REMARK  214  A    between atoms: _529  and  _532
REMARK  215  A    between atoms: _532  and  _533
REMARK  216  A    between atoms: _536  and  _538
REMARK  217  A    between atoms: _538  and  _539
REMARK  218  A    between atoms: _538  and  _541
REMARK  219  A    between atoms: _541  and  _542
REMARK  220  A    between atoms: _547  and  _548
REMARK  221  A    between atoms: _550  and  _552
REMARK  222  A    between atoms: _552  and  _553
REMARK  223  A    between atoms: _552  and  _555
REMARK  224  A    between atoms: _558  and  _560
REMARK  225  A    between atoms: _560  and  _561
REMARK  226  A    between atoms: _560  and  _563
REMARK  227  A    between atoms: _563  and  _564
REMARK  228  A    between atoms: _570  and  _572
REMARK  229  A    between atoms: _572  and  _573
REMARK  230  A    between atoms: _572  and  _575
REMARK  231  A    between atoms: _575  and  _576
REMARK  232  A    between atoms: _579  and  _581
REMARK  233  A    between atoms: _581  and  _582
REMARK  234  A    between atoms: _585  and  _587
REMARK  235  A    between atoms: _587  and  _588
REMARK  236  A    between atoms: _591  and  _593
REMARK  237  A    between atoms: _593  and  _594
REMARK  238  A    between atoms: _593  and  _596
REMARK  239  A    between atoms: _596  and  _597
REMARK  240  A    between atoms: _602  and  _603
REMARK  241  A    between atoms: _605  and  _607
REMARK  242  A    between atoms: _607  and  _608
REMARK  243  A    between atoms: _607  and  _610
REMARK  244  A    between atoms: _610  and  _611
REMARK  245  A    between atoms: _611  and  _612
REMARK  246  A    between atoms: _612  and  _613
REMARK                            x       y       z     vdW  Elec       q    Type
REMARK                         _______ _______ _______ _____ _____    ______ ____
ROOT
ATOM      1  O   HOH     1      -2.795 -21.214   4.536  0.00  0.00    +0.000 OA
ENDROOT
TORSDOF 0
REMARK  Name = ../refined-set-2016/3tfp/3tfp_pocket.pdb
REMARK  246 active torsions:
REMARK  status: ('A' for Active; 'I' for Inactive)
REMARK    1  A    between atoms: _1  and  _3
REMARK    2  A    between atoms: _3  and  _4
REMARK    3  A    between atoms: _3  and  _6
REMARK    4  A    between atoms: _6  and  _7
REMARK    5  A    between atoms: _10  and  _12
REMARK    6  A    between atoms: _12  and  _13
REMARK    7  A    between atoms: _12  and  _15
REMARK    8  A    between atoms: _15  and  _16
REMARK    9  A    between atoms: _16  and  _17
REMARK   10  A    between atoms: _19  and  _21
REMARK   11  A    between atoms: _21  and  _22
REMARK   12  A    between atoms: _21  and  _24
REMARK   13  A    between atoms: _24  and  _25
REMARK   14  A    between atoms: _30  and  _32
REMARK   15  A    between atoms: _32  and  _33
REMARK   16  A    between atoms: _32  and  _35
REMARK   17  A    between atoms: _35  and  _36
REMARK   18  A    between atoms: _38  and  _40
REMARK   19  A    between atoms: _40  and  _41
REMARK   20  A    between atoms: _40  and  _43
REMARK   21  A    between atoms: _43  and  _44
REMARK   22  A    between atoms: _50  and  _52
REMARK   23  A    between atoms: _52  and  _53
REMARK   24  A    between atoms: _52  and  _55
REMARK   25  A    between atoms: _55  and  _56
REMARK   26  A    between atoms: _58  and  _60
REMARK   27  A    between atoms: _60  and  _61
REMARK   28  A    between atoms: _60  and  _63
REMARK   29  A    between atoms: _63  and  _64
REMARK   30  A    between atoms: _70  and  _72
REMARK   31  A    between atoms: _72  and  _73
REMARK   32  A    between atoms: _76  and  _78
REMARK   33  A    between atoms: _78  and  _79
REMARK   34  A    between atoms: _78  and  _81
REMARK   35  A    between atoms: _84  and  _86
REMARK   36  A    between atoms: _86  and  _87
REMARK   37  A    between atoms: _86  and  _89
REMARK   38  A    between atoms: _89  and  _90
REMARK   39  A    between atoms: _100  and  _102
REMARK   40  A    between atoms: _102  and  _103
REMARK   41  A    between atoms: _106  and  _108
REMARK   42  A    between atoms: _108  and  _109
REMARK   43  A    between atoms: _108  and  _111
REMARK   44  A    between atoms: _111  and  _112
REMARK   45  A    between atoms: _115  and  _117
REMARK   46  A    between atoms: _117  and  _118
REMARK   47  A    between atoms: _117  and  _120
REMARK   48  A    between atoms: _120  and  _121
REMARK   49  A    between atoms: _126  and  _127
REMARK   50  A    between atoms: _129  and  _131
REMARK   51  A    between atoms: _131  and  _132
REMARK   52  A    between atoms: _135  and  _137
REMARK   53  A    between atoms: _137  and  _138
REMARK   54  A    between atoms: _137  and  _140
REMARK   55  A    between atoms: _143  and  _145
REMARK   56  A    between atoms: _145  and  _146
REMARK   57  A    between atoms: _145  and  _148
REMARK   58  A    between atoms: _150  and  _152
REMARK   59  A    between atoms: _152  and  _153
REMARK   60  A    between atoms: _152  and  _155
REMARK   61  A    between atoms: _155  and  _156
REMARK   62  A    between atoms: _156  and  _157
REMARK   63  A    between atoms: _157  and  _158
REMARK   64  A    between atoms: _167  and  _169
REMARK   65  A    between atoms: _169  and  _170
REMARK   66  A    between atoms: _169  and  _172
REMARK   67  A    between atoms: _172  and  _173
REMARK   68  A    between atoms: _173  and  _174
REMARK   69  A    between atoms: _174  and  _175
REMARK   70  A    between atoms: _175  and  _176
REMARK   71  A    between atoms: _180  and  _182
REMARK   72  A    between atoms: _182  and  _183
REMARK   73  A    between atoms: _182  and  _185
REMARK   74  A    between atoms: _185  and  _186
REMARK   75  A    between atoms: _189  and  _191
REMARK   76  A    between atoms: _191  and  _192
REMARK   77  A    between atoms: _191  and  _194
REMARK   78  A    between atoms: _194  and  _195
REMARK   79  A    between atoms: _198  and  _200
REMARK   80  A    between atoms: _200  and  _201
REMARK   81  A    between atoms: _200  and  _203
REMARK   82  A    between atoms: _203  and  _204
REMARK   83  A    between atoms: _207  and  _209
REMARK   84  A    between atoms: _209  and  _210
REMARK   85  A    between atoms: _209  and  _212
REMARK   86  A    between atoms: _212  and  _213
REMARK   87  A    between atoms: _219  and  _221
REMARK   88  A    between atoms: _221  and  _222
REMARK   89  A    between atoms: _221  and  _224
REMARK   90  A    between atoms: _224  and  _225
REMARK   91  A    between atoms: _228  and  _230
REMARK   92  A    between atoms: _230  and  _231
REMARK   93  A    between atoms: _230  and  _233
REMARK   94  A    between atoms: _233  and  _234
REMARK   95  A    between atoms: _237  and  _239
REMARK   96  A    between atoms: _239  and  _240
REMARK   97  A    between atoms: _239  and  _242
REMARK   98  A    between atoms: _242  and  _243
REMARK   99  A    between atoms: _246  and  _248
REMARK  100  A    between atoms: _248  and  _249
REMARK  101  A    between atoms: _248  and  _251
REMARK  102  A    between atoms: _254  and  _256
REMARK  103  A    between atoms: _256  and  _257
REMARK  104  A    between atoms: _256  and  _259
REMARK  105  A    between atoms: _259  and  _260
REMARK  106  A    between atoms: _265  and  _266
REMARK  107  A    between atoms: _268  and  _270
REMARK  108  A    between atoms: _270  and  _271
REMARK  109  A    between atoms: _270  and  _273
REMARK  110  A    between atoms: _275  and  _277
REMARK  111  A    between atoms: _277  and  _278
REMARK  112  A    between atoms: _280  and  _282
REMARK  113  A    between atoms: _282  and  _283
REMARK  114  A    between atoms: _282  and  _285
REMARK  115  A    between atoms: _288  and  _290
REMARK  116  A    between atoms: _290  and  _291
REMARK  117  A    between atoms: _294  and  _296
REMARK  118  A    between atoms: _296  and  _297
REMARK  119  A    between atoms: _299  and  _301
REMARK  120  A    between atoms: _301  and  _302
REMARK  121  A    between atoms: _301  and  _304
REMARK  122  A    between atoms: _304  and  _305
REMARK  123  A    between atoms: _308  and  _310
REMARK  124  A    between atoms: _310  and  _311
REMARK  125  A    between atoms: _310  and  _313
REMARK  126  A    between atoms: _316  and  _318
REMARK  127  A    between atoms: _318  and  _319
REMARK  128  A    between atoms: _321  and  _323
REMARK  129  A    between atoms: _323  and  _324
REMARK  130  A    between atoms: _323  and  _326
REMARK  131  A    between atoms: _326  and  _327
REMARK  132  A    between atoms: _327  and  _328
REMARK  133  A    between atoms: _331  and  _333
REMARK  134  A    between atoms: _333  and  _334
REMARK  135  A    between atoms: _333  and  _336
REMARK  136  A    between atoms: _339  and  _341
REMARK  137  A    between atoms: _341  and  _342
REMARK  138  A    between atoms: _341  and  _344
REMARK  139  A    between atoms: _344  and  _345
REMARK  140  A    between atoms: _348  and  _350
REMARK  141  A    between atoms: _350  and  _351
REMARK  142  A    between atoms: _350  and  _353
REMARK  143  A    between atoms: _353  and  _354
REMARK  144  A    between atoms: _357  and  _359
REMARK  145  A    between atoms: _359  and  _360
REMARK  146  A    between atoms: _359  and  _362
REMARK  147  A    between atoms: _362  and  _363
REMARK  148  A    between atoms: _366  and  _368
REMARK  149  A    between atoms: _368  and  _369
REMARK  150  A    between atoms: _368  and  _371
REMARK  151  A    between atoms: _371  and  _372
REMARK  152  A    between atoms: _377  and  _378
REMARK  153  A    between atoms: _380  and  _382
REMARK  154  A    between atoms: _382  and  _383
REMARK  155  A    between atoms: _382  and  _385
REMARK  156  A    between atoms: _388  and  _390
REMARK  157  A    between atoms: _390  and  _391
REMARK  158  A    between atoms: _394  and  _396
REMARK  159  A    between atoms: _396  and  _397
REMARK  160  A    between atoms: _396  and  _399
REMARK  161  A    between atoms: _399  and  _400
REMARK  162  A    between atoms: _400  and  _401
REMARK  163  A    between atoms: _401  and  _402
REMARK  164  A    between atoms: _411  and  _413
REMARK  165  A    between atoms: _413  and  _414
REMARK  166  A    between atoms: _413  and  _416
REMARK  167  A    between atoms: _416  and  _417
REMARK  168  A    between atoms: _417  and  _418
REMARK  169  A    between atoms: _418  and  _419
REMARK  170  A    between atoms: _428  and  _430
REMARK  171  A    between atoms: _430  and  _431
REMARK  172  A    between atoms: _430  and  _433
REMARK  173  A    between atoms: _433  and  _434
REMARK  174  A    between atoms: _437  and  _439
REMARK  175  A    between atoms: _439  and  _440
REMARK  176  A    between atoms: _442  and  _444
REMARK  177  A    between atoms: _444  and  _445
REMARK  178  A    between atoms: _444  and  _447
REMARK  179  A    between atoms: _447  and  _448
REMARK  180  A    between atoms: _448  and  _449
REMARK  181  A    between atoms: _452  and  _454
REMARK  182  A    between atoms: _454  and  _455
REMARK  183  A    between atoms: _454  and  _457
REMARK  184  A    between atoms: _457  and  _458
REMARK  185  A    between atoms: _460  and  _462
REMARK  186  A    between atoms: _462  and  _463
REMARK  187  A    between atoms: _462  and  _465
REMARK  188  A    between atoms: _465  and  _466
REMARK  189  A    between atoms: _469  and  _471
REMARK  190  A    between atoms: _471  and  _472
REMARK  191  A    between atoms: _471  and  _474
REMARK  192  A    between atoms: _474  and  _475
REMARK  193  A    between atoms: _475  and  _476
REMARK  194  A    between atoms: _481  and  _483
REMARK  195  A    between atoms: _483  and  _484
REMARK  196  A    between atoms: _483  and  _486
REMARK  197  A    between atoms: _486  and  _487
REMARK  198  A    between atoms: _492  and  _494
REMARK  199  A    between atoms: _494  and  _495
REMARK  200  A    between atoms: _494  and  _497
REMARK  201  A    between atoms: _497  and  _498
REMARK  202  A    between atoms: _501  and  _503
REMARK  203  A    between atoms: _503  and  _504
REMARK  204  A    between atoms: _503  and  _506
REMARK  205  A    between atoms: _506  and  _507
REMARK  206  A    between atoms: _507  and  _508
REMARK  207  A    between atoms: _508  and  _509
REMARK  208  A    between atoms: _518  and  _520
REMARK  209  A    between atoms: _520  and  _521
REMARK  210  A    between atoms: _520  and  _523
REMARK  211  A    between atoms: _523  and  _524
REMARK  212  A    between atoms: _527  and  _529
REMARK  213  A    between atoms: _529  and  _530
REMARK  214  A    between atoms: _529  and  _532
REMARK  215  A    between atoms: _532  and  _533
REMARK  216  A    between atoms: _536  and  _538
REMARK  217  A    between atoms: _538  and  _539
REMARK  218  A    between atoms: _538  and  _541
REMARK  219  A    between atoms: _541  and  _542
REMARK  220  A    between atoms: _547  and  _548
REMARK  221  A    between atoms: _550  and  _552
REMARK  222  A    between atoms: _552  and  _553
REMARK  223  A    between atoms: _552  and  _555
REMARK  224  A    between atoms: _558  and  _560
REMARK  225  A    between atoms: _560  and  _561
REMARK  226  A    between atoms: _560  and  _563
REMARK  227  A    between atoms: _563  and  _564
REMARK  228  A    between atoms: _570  and  _572
REMARK  229  A    between atoms: _572  and  _573
REMARK  230  A    between atoms: _572  and  _575
REMARK  231  A    between atoms: _575  and  _576
REMARK  232  A    between atoms: _579  and  _581
REMARK  233  A    between atoms: _581  and  _582
REMARK  234  A    between atoms: _585  and  _587
REMARK  235  A    between atoms: _587  and  _588
REMARK  236  A    between atoms: _591  and  _593
REMARK  237  A    between atoms: _593  and  _594
REMARK  238  A    between atoms: _593  and  _596
REMARK  239  A    between atoms: _596  and  _597
REMARK  240  A    between atoms: _602  and  _603
REMARK  241  A    between atoms: _605  and  _607
REMARK  242  A    between atoms: _607  and  _608
REMARK  243  A    between atoms: _607  and  _610
REMARK  244  A    between atoms: _610  and  _611
REMARK  245  A    between atoms: _611  and  _612
REMARK  246  A    between atoms: _612  and  _613
REMARK                            x       y       z     vdW  Elec       q    Type
REMARK                         _______ _______ _______ _____ _____    ______ ____
ROOT
ATOM      1  O   HOH     1     -13.167 -21.378  11.720  0.00  0.00    +0.000 OA
ENDROOT
TORSDOF 0
REMARK  Name = ../refined-set-2016/3tfp/3tfp_pocket.pdb
REMARK  246 active torsions:
REMARK  status: ('A' for Active; 'I' for Inactive)
REMARK    1  A    between atoms: _1  and  _3
REMARK    2  A    between atoms: _3  and  _4
REMARK    3  A    between atoms: _3  and  _6
REMARK    4  A    between atoms: _6  and  _7
REMARK    5  A    between atoms: _10  and  _12
REMARK    6  A    between atoms: _12  and  _13
REMARK    7  A    between atoms: _12  and  _15
REMARK    8  A    between atoms: _15  and  _16
REMARK    9  A    between atoms: _16  and  _17
REMARK   10  A    between atoms: _19  and  _21
REMARK   11  A    between atoms: _21  and  _22
REMARK   12  A    between atoms: _21  and  _24
REMARK   13  A    between atoms: _24  and  _25
REMARK   14  A    between atoms: _30  and  _32
REMARK   15  A    between atoms: _32  and  _33
REMARK   16  A    between atoms: _32  and  _35
REMARK   17  A    between atoms: _35  and  _36
REMARK   18  A    between atoms: _38  and  _40
REMARK   19  A    between atoms: _40  and  _41
REMARK   20  A    between atoms: _40  and  _43
REMARK   21  A    between atoms: _43  and  _44
REMARK   22  A    between atoms: _50  and  _52
REMARK   23  A    between atoms: _52  and  _53
REMARK   24  A    between atoms: _52  and  _55
REMARK   25  A    between atoms: _55  and  _56
REMARK   26  A    between atoms: _58  and  _60
REMARK   27  A    between atoms: _60  and  _61
REMARK   28  A    between atoms: _60  and  _63
REMARK   29  A    between atoms: _63  and  _64
REMARK   30  A    between atoms: _70  and  _72
REMARK   31  A    between atoms: _72  and  _73
REMARK   32  A    between atoms: _76  and  _78
REMARK   33  A    between atoms: _78  and  _79
REMARK   34  A    between atoms: _78  and  _81
REMARK   35  A    between atoms: _84  and  _86
REMARK   36  A    between atoms: _86  and  _87
REMARK   37  A    between atoms: _86  and  _89
REMARK   38  A    between atoms: _89  and  _90
REMARK   39  A    between atoms: _100  and  _102
REMARK   40  A    between atoms: _102  and  _103
REMARK   41  A    between atoms: _106  and  _108
REMARK   42  A    between atoms: _108  and  _109
REMARK   43  A    between atoms: _108  and  _111
REMARK   44  A    between atoms: _111  and  _112
REMARK   45  A    between atoms: _115  and  _117
REMARK   46  A    between atoms: _117  and  _118
REMARK   47  A    between atoms: _117  and  _120
REMARK   48  A    between atoms: _120  and  _121
REMARK   49  A    between atoms: _126  and  _127
REMARK   50  A    between atoms: _129  and  _131
REMARK   51  A    between atoms: _131  and  _132
REMARK   52  A    between atoms: _135  and  _137
REMARK   53  A    between atoms: _137  and  _138
REMARK   54  A    between atoms: _137  and  _140
REMARK   55  A    between atoms: _143  and  _145
REMARK   56  A    between atoms: _145  and  _146
REMARK   57  A    between atoms: _145  and  _148
REMARK   58  A    between atoms: _150  and  _152
REMARK   59  A    between atoms: _152  and  _153
REMARK   60  A    between atoms: _152  and  _155
REMARK   61  A    between atoms: _155  and  _156
REMARK   62  A    between atoms: _156  and  _157
REMARK   63  A    between atoms: _157  and  _158
REMARK   64  A    between atoms: _167  and  _169
REMARK   65  A    between atoms: _169  and  _170
REMARK   66  A    between atoms: _169  and  _172
REMARK   67  A    between atoms: _172  and  _173
REMARK   68  A    between atoms: _173  and  _174
REMARK   69  A    between atoms: _174  and  _175
REMARK   70  A    between atoms: _175  and  _176
REMARK   71  A    between atoms: _180  and  _182
REMARK   72  A    between atoms: _182  and  _183
REMARK   73  A    between atoms: _182  and  _185
REMARK   74  A    between atoms: _185  and  _186
REMARK   75  A    between atoms: _189  and  _191
REMARK   76  A    between atoms: _191  and  _192
REMARK   77  A    between atoms: _191  and  _194
REMARK   78  A    between atoms: _194  and  _195
REMARK   79  A    between atoms: _198  and  _200
REMARK   80  A    between atoms: _200  and  _201
REMARK   81  A    between atoms: _200  and  _203
REMARK   82  A    between atoms: _203  and  _204
REMARK   83  A    between atoms: _207  and  _209
REMARK   84  A    between atoms: _209  and  _210
REMARK   85  A    between atoms: _209  and  _212
REMARK   86  A    between atoms: _212  and  _213
REMARK   87  A    between atoms: _219  and  _221
REMARK   88  A    between atoms: _221  and  _222
REMARK   89  A    between atoms: _221  and  _224
REMARK   90  A    between atoms: _224  and  _225
REMARK   91  A    between atoms: _228  and  _230
REMARK   92  A    between atoms: _230  and  _231
REMARK   93  A    between atoms: _230  and  _233
REMARK   94  A    between atoms: _233  and  _234
REMARK   95  A    between atoms: _237  and  _239
REMARK   96  A    between atoms: _239  and  _240
REMARK   97  A    between atoms: _239  and  _242
REMARK   98  A    between atoms: _242  and  _243
REMARK   99  A    between atoms: _246  and  _248
REMARK  100  A    between atoms: _248  and  _249
REMARK  101  A    between atoms: _248  and  _251
REMARK  102  A    between atoms: _254  and  _256
REMARK  103  A    between atoms: _256  and  _257
REMARK  104  A    between atoms: _256  and  _259
REMARK  105  A    between atoms: _259  and  _260
REMARK  106  A    between atoms: _265  and  _266
REMARK  107  A    between atoms: _268  and  _270
REMARK  108  A    between atoms: _270  and  _271
REMARK  109  A    between atoms: _270  and  _273
REMARK  110  A    between atoms: _275  and  _277
REMARK  111  A    between atoms: _277  and  _278
REMARK  112  A    between atoms: _280  and  _282
REMARK  113  A    between atoms: _282  and  _283
REMARK  114  A    between atoms: _282  and  _285
REMARK  115  A    between atoms: _288  and  _290
REMARK  116  A    between atoms: _290  and  _291
REMARK  117  A    between atoms: _294  and  _296
REMARK  118  A    between atoms: _296  and  _297
REMARK  119  A    between atoms: _299  and  _301
REMARK  120  A    between atoms: _301  and  _302
REMARK  121  A    between atoms: _301  and  _304
REMARK  122  A    between atoms: _304  and  _305
REMARK  123  A    between atoms: _308  and  _310
REMARK  124  A    between atoms: _310  and  _311
REMARK  125  A    between atoms: _310  and  _313
REMARK  126  A    between atoms: _316  and  _318
REMARK  127  A    between atoms: _318  and  _319
REMARK  128  A    between atoms: _321  and  _323
REMARK  129  A    between atoms: _323  and  _324
REMARK  130  A    between atoms: _323  and  _326
REMARK  131  A    between atoms: _326  and  _327
REMARK  132  A    between atoms: _327  and  _328
REMARK  133  A    between atoms: _331  and  _333
REMARK  134  A    between atoms: _333  and  _334
REMARK  135  A    between atoms: _333  and  _336
REMARK  136  A    between atoms: _339  and  _341
REMARK  137  A    between atoms: _341  and  _342
REMARK  138  A    between atoms: _341  and  _344
REMARK  139  A    between atoms: _344  and  _345
REMARK  140  A    between atoms: _348  and  _350
REMARK  141  A    between atoms: _350  and  _351
REMARK  142  A    between atoms: _350  and  _353
REMARK  143  A    between atoms: _353  and  _354
REMARK  144  A    between atoms: _357  and  _359
REMARK  145  A    between atoms: _359  and  _360
REMARK  146  A    between atoms: _359  and  _362
REMARK  147  A    between atoms: _362  and  _363
REMARK  148  A    between atoms: _366  and  _368
REMARK  149  A    between atoms: _368  and  _369
REMARK  150  A    between atoms: _368  and  _371
REMARK  151  A    between atoms: _371  and  _372
REMARK  152  A    between atoms: _377  and  _378
REMARK  153  A    between atoms: _380  and  _382
REMARK  154  A    between atoms: _382  and  _383
REMARK  155  A    between atoms: _382  and  _385
REMARK  156  A    between atoms: _388  and  _390
REMARK  157  A    between atoms: _390  and  _391
REMARK  158  A    between atoms: _394  and  _396
REMARK  159  A    between atoms: _396  and  _397
REMARK  160  A    between atoms: _396  and  _399
REMARK  161  A    between atoms: _399  and  _400
REMARK  162  A    between atoms: _400  and  _401
REMARK  163  A    between atoms: _401  and  _402
REMARK  164  A    between atoms: _411  and  _413
REMARK  165  A    between atoms: _413  and  _414
REMARK  166  A    between atoms: _413  and  _416
REMARK  167  A    between atoms: _416  and  _417
REMARK  168  A    between atoms: _417  and  _418
REMARK  169  A    between atoms: _418  and  _419
REMARK  170  A    between atoms: _428  and  _430
REMARK  171  A    between atoms: _430  and  _431
REMARK  172  A    between atoms: _430  and  _433
REMARK  173  A    between atoms: _433  and  _434
REMARK  174  A    between atoms: _437  and  _439
REMARK  175  A    between atoms: _439  and  _440
REMARK  176  A    between atoms: _442  and  _444
REMARK  177  A    between atoms: _444  and  _445
REMARK  178  A    between atoms: _444  and  _447
REMARK  179  A    between atoms: _447  and  _448
REMARK  180  A    between atoms: _448  and  _449
REMARK  181  A    between atoms: _452  and  _454
REMARK  182  A    between atoms: _454  and  _455
REMARK  183  A    between atoms: _454  and  _457
REMARK  184  A    between atoms: _457  and  _458
REMARK  185  A    between atoms: _460  and  _462
REMARK  186  A    between atoms: _462  and  _463
REMARK  187  A    between atoms: _462  and  _465
REMARK  188  A    between atoms: _465  and  _466
REMARK  189  A    between atoms: _469  and  _471
REMARK  190  A    between atoms: _471  and  _472
REMARK  191  A    between atoms: _471  and  _474
REMARK  192  A    between atoms: _474  and  _475
REMARK  193  A    between atoms: _475  and  _476
REMARK  194  A    between atoms: _481  and  _483
REMARK  195  A    between atoms: _483  and  _484
REMARK  196  A    between atoms: _483  and  _486
REMARK  197  A    between atoms: _486  and  _487
REMARK  198  A    between atoms: _492  and  _494
REMARK  199  A    between atoms: _494  and  _495
REMARK  200  A    between atoms: _494  and  _497
REMARK  201  A    between atoms: _497  and  _498
REMARK  202  A    between atoms: _501  and  _503
REMARK  203  A    between atoms: _503  and  _504
REMARK  204  A    between atoms: _503  and  _506
REMARK  205  A    between atoms: _506  and  _507
REMARK  206  A    between atoms: _507  and  _508
REMARK  207  A    between atoms: _508  and  _509
REMARK  208  A    between atoms: _518  and  _520
REMARK  209  A    between atoms: _520  and  _521
REMARK  210  A    between atoms: _520  and  _523
REMARK  211  A    between atoms: _523  and  _524
REMARK  212  A    between atoms: _527  and  _529
REMARK  213  A    between atoms: _529  and  _530
REMARK  214  A    between atoms: _529  and  _532
REMARK  215  A    between atoms: _532  and  _533
REMARK  216  A    between atoms: _536  and  _538
REMARK  217  A    between atoms: _538  and  _539
REMARK  218  A    between atoms: _538  and  _541
REMARK  219  A    between atoms: _541  and  _542
REMARK  220  A    between atoms: _547  and  _548
REMARK  221  A    between atoms: _550  and  _552
REMARK  222  A    between atoms: _552  and  _553
REMARK  223  A    between atoms: _552  and  _555
REMARK  224  A    between atoms: _558  and  _560
REMARK  225  A    between atoms: _560  and  _561
REMARK  226  A    between atoms: _560  and  _563
REMARK  227  A    between atoms: _563  and  _564
REMARK  228  A    between atoms: _570  and  _572
REMARK  229  A    between atoms: _572  and  _573
REMARK  230  A    between atoms: _572  and  _575
REMARK  231  A    between atoms: _575  and  _576
REMARK  232  A    between atoms: _579  and  _581
REMARK  233  A    between atoms: _581  and  _582
REMARK  234  A    between atoms: _585  and  _587
REMARK  235  A    between atoms: _587  and  _588
REMARK  236  A    between atoms: _591  and  _593
REMARK  237  A    between atoms: _593  and  _594
REMARK  238  A    between atoms: _593  and  _596
REMARK  239  A    between atoms: _596  and  _597
REMARK  240  A    between atoms: _602  and  _603
REMARK  241  A    between atoms: _605  and  _607
REMARK  242  A    between atoms: _607  and  _608
REMARK  243  A    between atoms: _607  and  _610
REMARK  244  A    between atoms: _610  and  _611
REMARK  245  A    between atoms: _611  and  _612
REMARK  246  A    between atoms: _612  and  _613
REMARK                            x       y       z     vdW  Elec       q    Type
REMARK                         _______ _______ _______ _____ _____    ______ ____
ROOT
ATOM      1  O   HOH     1      -9.652 -24.038  11.488  0.00  0.00    +0.000 OA
ENDROOT
TORSDOF 0
REMARK  Name = ../refined-set-2016/3tfp/3tfp_pocket.pdb
REMARK  246 active torsions:
REMARK  status: ('A' for Active; 'I' for Inactive)
REMARK    1  A    between atoms: _1  and  _3
REMARK    2  A    between atoms: _3  and  _4
REMARK    3  A    between atoms: _3  and  _6
REMARK    4  A    between atoms: _6  and  _7
REMARK    5  A    between atoms: _10  and  _12
REMARK    6  A    between atoms: _12  and  _13
REMARK    7  A    between atoms: _12  and  _15
REMARK    8  A    between atoms: _15  and  _16
REMARK    9  A    between atoms: _16  and  _17
REMARK   10  A    between atoms: _19  and  _21
REMARK   11  A    between atoms: _21  and  _22
REMARK   12  A    between atoms: _21  and  _24
REMARK   13  A    between atoms: _24  and  _25
REMARK   14  A    between atoms: _30  and  _32
REMARK   15  A    between atoms: _32  and  _33
REMARK   16  A    between atoms: _32  and  _35
REMARK   17  A    between atoms: _35  and  _36
REMARK   18  A    between atoms: _38  and  _40
REMARK   19  A    between atoms: _40  and  _41
REMARK   20  A    between atoms: _40  and  _43
REMARK   21  A    between atoms: _43  and  _44
REMARK   22  A    between atoms: _50  and  _52
REMARK   23  A    between atoms: _52  and  _53
REMARK   24  A    between atoms: _52  and  _55
REMARK   25  A    between atoms: _55  and  _56
REMARK   26  A    between atoms: _58  and  _60
REMARK   27  A    between atoms: _60  and  _61
REMARK   28  A    between atoms: _60  and  _63
REMARK   29  A    between atoms: _63  and  _64
REMARK   30  A    between atoms: _70  and  _72
REMARK   31  A    between atoms: _72  and  _73
REMARK   32  A    between atoms: _76  and  _78
REMARK   33  A    between atoms: _78  and  _79
REMARK   34  A    between atoms: _78  and  _81
REMARK   35  A    between atoms: _84  and  _86
REMARK   36  A    between atoms: _86  and  _87
REMARK   37  A    between atoms: _86  and  _89
REMARK   38  A    between atoms: _89  and  _90
REMARK   39  A    between atoms: _100  and  _102
REMARK   40  A    between atoms: _102  and  _103
REMARK   41  A    between atoms: _106  and  _108
REMARK   42  A    between atoms: _108  and  _109
REMARK   43  A    between atoms: _108  and  _111
REMARK   44  A    between atoms: _111  and  _112
REMARK   45  A    between atoms: _115  and  _117
REMARK   46  A    between atoms: _117  and  _118
REMARK   47  A    between atoms: _117  and  _120
REMARK   48  A    between atoms: _120  and  _121
REMARK   49  A    between atoms: _126  and  _127
REMARK   50  A    between atoms: _129  and  _131
REMARK   51  A    between atoms: _131  and  _132
REMARK   52  A    between atoms: _135  and  _137
REMARK   53  A    between atoms: _137  and  _138
REMARK   54  A    between atoms: _137  and  _140
REMARK   55  A    between atoms: _143  and  _145
REMARK   56  A    between atoms: _145  and  _146
REMARK   57  A    between atoms: _145  and  _148
REMARK   58  A    between atoms: _150  and  _152
REMARK   59  A    between atoms: _152  and  _153
REMARK   60  A    between atoms: _152  and  _155
REMARK   61  A    between atoms: _155  and  _156
REMARK   62  A    between atoms: _156  and  _157
REMARK   63  A    between atoms: _157  and  _158
REMARK   64  A    between atoms: _167  and  _169
REMARK   65  A    between atoms: _169  and  _170
REMARK   66  A    between atoms: _169  and  _172
REMARK   67  A    between atoms: _172  and  _173
REMARK   68  A    between atoms: _173  and  _174
REMARK   69  A    between atoms: _174  and  _175
REMARK   70  A    between atoms: _175  and  _176
REMARK   71  A    between atoms: _180  and  _182
REMARK   72  A    between atoms: _182  and  _183
REMARK   73  A    between atoms: _182  and  _185
REMARK   74  A    between atoms: _185  and  _186
REMARK   75  A    between atoms: _189  and  _191
REMARK   76  A    between atoms: _191  and  _192
REMARK   77  A    between atoms: _191  and  _194
REMARK   78  A    between atoms: _194  and  _195
REMARK   79  A    between atoms: _198  and  _200
REMARK   80  A    between atoms: _200  and  _201
REMARK   81  A    between atoms: _200  and  _203
REMARK   82  A    between atoms: _203  and  _204
REMARK   83  A    between atoms: _207  and  _209
REMARK   84  A    between atoms: _209  and  _210
REMARK   85  A    between atoms: _209  and  _212
REMARK   86  A    between atoms: _212  and  _213
REMARK   87  A    between atoms: _219  and  _221
REMARK   88  A    between atoms: _221  and  _222
REMARK   89  A    between atoms: _221  and  _224
REMARK   90  A    between atoms: _224  and  _225
REMARK   91  A    between atoms: _228  and  _230
REMARK   92  A    between atoms: _230  and  _231
REMARK   93  A    between atoms: _230  and  _233
REMARK   94  A    between atoms: _233  and  _234
REMARK   95  A    between atoms: _237  and  _239
REMARK   96  A    between atoms: _239  and  _240
REMARK   97  A    between atoms: _239  and  _242
REMARK   98  A    between atoms: _242  and  _243
REMARK   99  A    between atoms: _246  and  _248
REMARK  100  A    between atoms: _248  and  _249
REMARK  101  A    between atoms: _248  and  _251
REMARK  102  A    between atoms: _254  and  _256
REMARK  103  A    between atoms: _256  and  _257
REMARK  104  A    between atoms: _256  and  _259
REMARK  105  A    between atoms: _259  and  _260
REMARK  106  A    between atoms: _265  and  _266
REMARK  107  A    between atoms: _268  and  _270
REMARK  108  A    between atoms: _270  and  _271
REMARK  109  A    between atoms: _270  and  _273
REMARK  110  A    between atoms: _275  and  _277
REMARK  111  A    between atoms: _277  and  _278
REMARK  112  A    between atoms: _280  and  _282
REMARK  113  A    between atoms: _282  and  _283
REMARK  114  A    between atoms: _282  and  _285
REMARK  115  A    between atoms: _288  and  _290
REMARK  116  A    between atoms: _290  and  _291
REMARK  117  A    between atoms: _294  and  _296
REMARK  118  A    between atoms: _296  and  _297
REMARK  119  A    between atoms: _299  and  _301
REMARK  120  A    between atoms: _301  and  _302
REMARK  121  A    between atoms: _301  and  _304
REMARK  122  A    between atoms: _304  and  _305
REMARK  123  A    between atoms: _308  and  _310
REMARK  124  A    between atoms: _310  and  _311
REMARK  125  A    between atoms: _310  and  _313
REMARK  126  A    between atoms: _316  and  _318
REMARK  127  A    between atoms: _318  and  _319
REMARK  128  A    between atoms: _321  and  _323
REMARK  129  A    between atoms: _323  and  _324
REMARK  130  A    between atoms: _323  and  _326
REMARK  131  A    between atoms: _326  and  _327
REMARK  132  A    between atoms: _327  and  _328
REMARK  133  A    between atoms: _331  and  _333
REMARK  134  A    between atoms: _333  and  _334
REMARK  135  A    between atoms: _333  and  _336
REMARK  136  A    between atoms: _339  and  _341
REMARK  137  A    between atoms: _341  and  _342
REMARK  138  A    between atoms: _341  and  _344
REMARK  139  A    between atoms: _344  and  _345
REMARK  140  A    between atoms: _348  and  _350
REMARK  141  A    between atoms: _350  and  _351
REMARK  142  A    between atoms: _350  and  _353
REMARK  143  A    between atoms: _353  and  _354
REMARK  144  A    between atoms: _357  and  _359
REMARK  145  A    between atoms: _359  and  _360
REMARK  146  A    between atoms: _359  and  _362
REMARK  147  A    between atoms: _362  and  _363
REMARK  148  A    between atoms: _366  and  _368
REMARK  149  A    between atoms: _368  and  _369
REMARK  150  A    between atoms: _368  and  _371
REMARK  151  A    between atoms: _371  and  _372
REMARK  152  A    between atoms: _377  and  _378
REMARK  153  A    between atoms: _380  and  _382
REMARK  154  A    between atoms: _382  and  _383
REMARK  155  A    between atoms: _382  and  _385
REMARK  156  A    between atoms: _388  and  _390
REMARK  157  A    between atoms: _390  and  _391
REMARK  158  A    between atoms: _394  and  _396
REMARK  159  A    between atoms: _396  and  _397
REMARK  160  A    between atoms: _396  and  _399
REMARK  161  A    between atoms: _399  and  _400
REMARK  162  A    between atoms: _400  and  _401
REMARK  163  A    between atoms: _401  and  _402
REMARK  164  A    between atoms: _411  and  _413
REMARK  165  A    between atoms: _413  and  _414
REMARK  166  A    between atoms: _413  and  _416
REMARK  167  A    between atoms: _416  and  _417
REMARK  168  A    between atoms: _417  and  _418
REMARK  169  A    between atoms: _418  and  _419
REMARK  170  A    between atoms: _428  and  _430
REMARK  171  A    between atoms: _430  and  _431
REMARK  172  A    between atoms: _430  and  _433
REMARK  173  A    between atoms: _433  and  _434
REMARK  174  A    between atoms: _437  and  _439
REMARK  175  A    between atoms: _439  and  _440
REMARK  176  A    between atoms: _442  and  _444
REMARK  177  A    between atoms: _444  and  _445
REMARK  178  A    between atoms: _444  and  _447
REMARK  179  A    between atoms: _447  and  _448
REMARK  180  A    between atoms: _448  and  _449
REMARK  181  A    between atoms: _452  and  _454
REMARK  182  A    between atoms: _454  and  _455
REMARK  183  A    between atoms: _454  and  _457
REMARK  184  A    between atoms: _457  and  _458
REMARK  185  A    between atoms: _460  and  _462
REMARK  186  A    between atoms: _462  and  _463
REMARK  187  A    between atoms: _462  and  _465
REMARK  188  A    between atoms: _465  and  _466
REMARK  189  A    between atoms: _469  and  _471
REMARK  190  A    between atoms: _471  and  _472
REMARK  191  A    between atoms: _471  and  _474
REMARK  192  A    between atoms: _474  and  _475
REMARK  193  A    between atoms: _475  and  _476
REMARK  194  A    between atoms: _481  and  _483
REMARK  195  A    between atoms: _483  and  _484
REMARK  196  A    between atoms: _483  and  _486
REMARK  197  A    between atoms: _486  and  _487
REMARK  198  A    between atoms: _492  and  _494
REMARK  199  A    between atoms: _494  and  _495
REMARK  200  A    between atoms: _494  and  _497
REMARK  201  A    between atoms: _497  and  _498
REMARK  202  A    between atoms: _501  and  _503
REMARK  203  A    between atoms: _503  and  _504
REMARK  204  A    between atoms: _503  and  _506
REMARK  205  A    between atoms: _506  and  _507
REMARK  206  A    between atoms: _507  and  _508
REMARK  207  A    between atoms: _508  and  _509
REMARK  208  A    between atoms: _518  and  _520
REMARK  209  A    between atoms: _520  and  _521
REMARK  210  A    between atoms: _520  and  _523
REMARK  211  A    between atoms: _523  and  _524
REMARK  212  A    between atoms: _527  and  _529
REMARK  213  A    between atoms: _529  and  _530
REMARK  214  A    between atoms: _529  and  _532
REMARK  215  A    between atoms: _532  and  _533
REMARK  216  A    between atoms: _536  and  _538
REMARK  217  A    between atoms: _538  and  _539
REMARK  218  A    between atoms: _538  and  _541
REMARK  219  A    between atoms: _541  and  _542
REMARK  220  A    between atoms: _547  and  _548
REMARK  221  A    between atoms: _550  and  _552
REMARK  222  A    between atoms: _552  and  _553
REMARK  223  A    between atoms: _552  and  _555
REMARK  224  A    between atoms: _558  and  _560
REMARK  225  A    between atoms: _560  and  _561
REMARK  226  A    between atoms: _560  and  _563
REMARK  227  A    between atoms: _563  and  _564
REMARK  228  A    between atoms: _570  and  _572
REMARK  229  A    between atoms: _572  and  _573
REMARK  230  A    between atoms: _572  and  _575
REMARK  231  A    between atoms: _575  and  _576
REMARK  232  A    between atoms: _579  and  _581
REMARK  233  A    between atoms: _581  and  _582
REMARK  234  A    between atoms: _585  and  _587
REMARK  235  A    between atoms: _587  and  _588
REMARK  236  A    between atoms: _591  and  _593
REMARK  237  A    between atoms: _593  and  _594
REMARK  238  A    between atoms: _593  and  _596
REMARK  239  A    between atoms: _596  and  _597
REMARK  240  A    between atoms: _602  and  _603
REMARK  241  A    between atoms: _605  and  _607
REMARK  242  A    between atoms: _607  and  _608
REMARK  243  A    between atoms: _607  and  _610
REMARK  244  A    between atoms: _610  and  _611
REMARK  245  A    between atoms: _611  and  _612
REMARK  246  A    between atoms: _612  and  _613
REMARK                            x       y       z     vdW  Elec       q    Type
REMARK                         _______ _______ _______ _____ _____    ______ ____
ROOT
ATOM      1  O   HOH     1      -2.366 -29.432   9.170  0.00  0.00    +0.000 OA
ENDROOT
TORSDOF 0
REMARK  Name = ../refined-set-2016/3tfp/3tfp_pocket.pdb
REMARK  246 active torsions:
REMARK  status: ('A' for Active; 'I' for Inactive)
REMARK    1  A    between atoms: _1  and  _3
REMARK    2  A    between atoms: _3  and  _4
REMARK    3  A    between atoms: _3  and  _6
REMARK    4  A    between atoms: _6  and  _7
REMARK    5  A    between atoms: _10  and  _12
REMARK    6  A    between atoms: _12  and  _13
REMARK    7  A    between atoms: _12  and  _15
REMARK    8  A    between atoms: _15  and  _16
REMARK    9  A    between atoms: _16  and  _17
REMARK   10  A    between atoms: _19  and  _21
REMARK   11  A    between atoms: _21  and  _22
REMARK   12  A    between atoms: _21  and  _24
REMARK   13  A    between atoms: _24  and  _25
REMARK   14  A    between atoms: _30  and  _32
REMARK   15  A    between atoms: _32  and  _33
REMARK   16  A    between atoms: _32  and  _35
REMARK   17  A    between atoms: _35  and  _36
REMARK   18  A    between atoms: _38  and  _40
REMARK   19  A    between atoms: _40  and  _41
REMARK   20  A    between atoms: _40  and  _43
REMARK   21  A    between atoms: _43  and  _44
REMARK   22  A    between atoms: _50  and  _52
REMARK   23  A    between atoms: _52  and  _53
REMARK   24  A    between atoms: _52  and  _55
REMARK   25  A    between atoms: _55  and  _56
REMARK   26  A    between atoms: _58  and  _60
REMARK   27  A    between atoms: _60  and  _61
REMARK   28  A    between atoms: _60  and  _63
REMARK   29  A    between atoms: _63  and  _64
REMARK   30  A    between atoms: _70  and  _72
REMARK   31  A    between atoms: _72  and  _73
REMARK   32  A    between atoms: _76  and  _78
REMARK   33  A    between atoms: _78  and  _79
REMARK   34  A    between atoms: _78  and  _81
REMARK   35  A    between atoms: _84  and  _86
REMARK   36  A    between atoms: _86  and  _87
REMARK   37  A    between atoms: _86  and  _89
REMARK   38  A    between atoms: _89  and  _90
REMARK   39  A    between atoms: _100  and  _102
REMARK   40  A    between atoms: _102  and  _103
REMARK   41  A    between atoms: _106  and  _108
REMARK   42  A    between atoms: _108  and  _109
REMARK   43  A    between atoms: _108  and  _111
REMARK   44  A    between atoms: _111  and  _112
REMARK   45  A    between atoms: _115  and  _117
REMARK   46  A    between atoms: _117  and  _118
REMARK   47  A    between atoms: _117  and  _120
REMARK   48  A    between atoms: _120  and  _121
REMARK   49  A    between atoms: _126  and  _127
REMARK   50  A    between atoms: _129  and  _131
REMARK   51  A    between atoms: _131  and  _132
REMARK   52  A    between atoms: _135  and  _137
REMARK   53  A    between atoms: _137  and  _138
REMARK   54  A    between atoms: _137  and  _140
REMARK   55  A    between atoms: _143  and  _145
REMARK   56  A    between atoms: _145  and  _146
REMARK   57  A    between atoms: _145  and  _148
REMARK   58  A    between atoms: _150  and  _152
REMARK   59  A    between atoms: _152  and  _153
REMARK   60  A    between atoms: _152  and  _155
REMARK   61  A    between atoms: _155  and  _156
REMARK   62  A    between atoms: _156  and  _157
REMARK   63  A    between atoms: _157  and  _158
REMARK   64  A    between atoms: _167  and  _169
REMARK   65  A    between atoms: _169  and  _170
REMARK   66  A    between atoms: _169  and  _172
REMARK   67  A    between atoms: _172  and  _173
REMARK   68  A    between atoms: _173  and  _174
REMARK   69  A    between atoms: _174  and  _175
REMARK   70  A    between atoms: _175  and  _176
REMARK   71  A    between atoms: _180  and  _182
REMARK   72  A    between atoms: _182  and  _183
REMARK   73  A    between atoms: _182  and  _185
REMARK   74  A    between atoms: _185  and  _186
REMARK   75  A    between atoms: _189  and  _191
REMARK   76  A    between atoms: _191  and  _192
REMARK   77  A    between atoms: _191  and  _194
REMARK   78  A    between atoms: _194  and  _195
REMARK   79  A    between atoms: _198  and  _200
REMARK   80  A    between atoms: _200  and  _201
REMARK   81  A    between atoms: _200  and  _203
REMARK   82  A    between atoms: _203  and  _204
REMARK   83  A    between atoms: _207  and  _209
REMARK   84  A    between atoms: _209  and  _210
REMARK   85  A    between atoms: _209  and  _212
REMARK   86  A    between atoms: _212  and  _213
REMARK   87  A    between atoms: _219  and  _221
REMARK   88  A    between atoms: _221  and  _222
REMARK   89  A    between atoms: _221  and  _224
REMARK   90  A    between atoms: _224  and  _225
REMARK   91  A    between atoms: _228  and  _230
REMARK   92  A    between atoms: _230  and  _231
REMARK   93  A    between atoms: _230  and  _233
REMARK   94  A    between atoms: _233  and  _234
REMARK   95  A    between atoms: _237  and  _239
REMARK   96  A    between atoms: _239  and  _240
REMARK   97  A    between atoms: _239  and  _242
REMARK   98  A    between atoms: _242  and  _243
REMARK   99  A    between atoms: _246  and  _248
REMARK  100  A    between atoms: _248  and  _249
REMARK  101  A    between atoms: _248  and  _251
REMARK  102  A    between atoms: _254  and  _256
REMARK  103  A    between atoms: _256  and  _257
REMARK  104  A    between atoms: _256  and  _259
REMARK  105  A    between atoms: _259  and  _260
REMARK  106  A    between atoms: _265  and  _266
REMARK  107  A    between atoms: _268  and  _270
REMARK  108  A    between atoms: _270  and  _271
REMARK  109  A    between atoms: _270  and  _273
REMARK  110  A    between atoms: _275  and  _277
REMARK  111  A    between atoms: _277  and  _278
REMARK  112  A    between atoms: _280  and  _282
REMARK  113  A    between atoms: _282  and  _283
REMARK  114  A    between atoms: _282  and  _285
REMARK  115  A    between atoms: _288  and  _290
REMARK  116  A    between atoms: _290  and  _291
REMARK  117  A    between atoms: _294  and  _296
REMARK  118  A    between atoms: _296  and  _297
REMARK  119  A    between atoms: _299  and  _301
REMARK  120  A    between atoms: _301  and  _302
REMARK  121  A    between atoms: _301  and  _304
REMARK  122  A    between atoms: _304  and  _305
REMARK  123  A    between atoms: _308  and  _310
REMARK  124  A    between atoms: _310  and  _311
REMARK  125  A    between atoms: _310  and  _313
REMARK  126  A    between atoms: _316  and  _318
REMARK  127  A    between atoms: _318  and  _319
REMARK  128  A    between atoms: _321  and  _323
REMARK  129  A    between atoms: _323  and  _324
REMARK  130  A    between atoms: _323  and  _326
REMARK  131  A    between atoms: _326  and  _327
REMARK  132  A    between atoms: _327  and  _328
REMARK  133  A    between atoms: _331  and  _333
REMARK  134  A    between atoms: _333  and  _334
REMARK  135  A    between atoms: _333  and  _336
REMARK  136  A    between atoms: _339  and  _341
REMARK  137  A    between atoms: _341  and  _342
REMARK  138  A    between atoms: _341  and  _344
REMARK  139  A    between atoms: _344  and  _345
REMARK  140  A    between atoms: _348  and  _350
REMARK  141  A    between atoms: _350  and  _351
REMARK  142  A    between atoms: _350  and  _353
REMARK  143  A    between atoms: _353  and  _354
REMARK  144  A    between atoms: _357  and  _359
REMARK  145  A    between atoms: _359  and  _360
REMARK  146  A    between atoms: _359  and  _362
REMARK  147  A    between atoms: _362  and  _363
REMARK  148  A    between atoms: _366  and  _368
REMARK  149  A    between atoms: _368  and  _369
REMARK  150  A    between atoms: _368  and  _371
REMARK  151  A    between atoms: _371  and  _372
REMARK  152  A    between atoms: _377  and  _378
REMARK  153  A    between atoms: _380  and  _382
REMARK  154  A    between atoms: _382  and  _383
REMARK  155  A    between atoms: _382  and  _385
REMARK  156  A    between atoms: _388  and  _390
REMARK  157  A    between atoms: _390  and  _391
REMARK  158  A    between atoms: _394  and  _396
REMARK  159  A    between atoms: _396  and  _397
REMARK  160  A    between atoms: _396  and  _399
REMARK  161  A    between atoms: _399  and  _400
REMARK  162  A    between atoms: _400  and  _401
REMARK  163  A    between atoms: _401  and  _402
REMARK  164  A    between atoms: _411  and  _413
REMARK  165  A    between atoms: _413  and  _414
REMARK  166  A    between atoms: _413  and  _416
REMARK  167  A    between atoms: _416  and  _417
REMARK  168  A    between atoms: _417  and  _418
REMARK  169  A    between atoms: _418  and  _419
REMARK  170  A    between atoms: _428  and  _430
REMARK  171  A    between atoms: _430  and  _431
REMARK  172  A    between atoms: _430  and  _433
REMARK  173  A    between atoms: _433  and  _434
REMARK  174  A    between atoms: _437  and  _439
REMARK  175  A    between atoms: _439  and  _440
REMARK  176  A    between atoms: _442  and  _444
REMARK  177  A    between atoms: _444  and  _445
REMARK  178  A    between atoms: _444  and  _447
REMARK  179  A    between atoms: _447  and  _448
REMARK  180  A    between atoms: _448  and  _449
REMARK  181  A    between atoms: _452  and  _454
REMARK  182  A    between atoms: _454  and  _455
REMARK  183  A    between atoms: _454  and  _457
REMARK  184  A    between atoms: _457  and  _458
REMARK  185  A    between atoms: _460  and  _462
REMARK  186  A    between atoms: _462  and  _463
REMARK  187  A    between atoms: _462  and  _465
REMARK  188  A    between atoms: _465  and  _466
REMARK  189  A    between atoms: _469  and  _471
REMARK  190  A    between atoms: _471  and  _472
REMARK  191  A    between atoms: _471  and  _474
REMARK  192  A    between atoms: _474  and  _475
REMARK  193  A    between atoms: _475  and  _476
REMARK  194  A    between atoms: _481  and  _483
REMARK  195  A    between atoms: _483  and  _484
REMARK  196  A    between atoms: _483  and  _486
REMARK  197  A    between atoms: _486  and  _487
REMARK  198  A    between atoms: _492  and  _494
REMARK  199  A    between atoms: _494  and  _495
REMARK  200  A    between atoms: _494  and  _497
REMARK  201  A    between atoms: _497  and  _498
REMARK  202  A    between atoms: _501  and  _503
REMARK  203  A    between atoms: _503  and  _504
REMARK  204  A    between atoms: _503  and  _506
REMARK  205  A    between atoms: _506  and  _507
REMARK  206  A    between atoms: _507  and  _508
REMARK  207  A    between atoms: _508  and  _509
REMARK  208  A    between atoms: _518  and  _520
REMARK  209  A    between atoms: _520  and  _521
REMARK  210  A    between atoms: _520  and  _523
REMARK  211  A    between atoms: _523  and  _524
REMARK  212  A    between atoms: _527  and  _529
REMARK  213  A    between atoms: _529  and  _530
REMARK  214  A    between atoms: _529  and  _532
REMARK  215  A    between atoms: _532  and  _533
REMARK  216  A    between atoms: _536  and  _538
REMARK  217  A    between atoms: _538  and  _539
REMARK  218  A    between atoms: _538  and  _541
REMARK  219  A    between atoms: _541  and  _542
REMARK  220  A    between atoms: _547  and  _548
REMARK  221  A    between atoms: _550  and  _552
REMARK  222  A    between atoms: _552  and  _553
REMARK  223  A    between atoms: _552  and  _555
REMARK  224  A    between atoms: _558  and  _560
REMARK  225  A    between atoms: _560  and  _561
REMARK  226  A    between atoms: _560  and  _563
REMARK  227  A    between atoms: _563  and  _564
REMARK  228  A    between atoms: _570  and  _572
REMARK  229  A    between atoms: _572  and  _573
REMARK  230  A    between atoms: _572  and  _575
REMARK  231  A    between atoms: _575  and  _576
REMARK  232  A    between atoms: _579  and  _581
REMARK  233  A    between atoms: _581  and  _582
REMARK  234  A    between atoms: _585  and  _587
REMARK  235  A    between atoms: _587  and  _588
REMARK  236  A    between atoms: _591  and  _593
REMARK  237  A    between atoms: _593  and  _594
REMARK  238  A    between atoms: _593  and  _596
REMARK  239  A    between atoms: _596  and  _597
REMARK  240  A    between atoms: _602  and  _603
REMARK  241  A    between atoms: _605  and  _607
REMARK  242  A    between atoms: _607  and  _608
REMARK  243  A    between atoms: _607  and  _610
REMARK  244  A    between atoms: _610  and  _611
REMARK  245  A    between atoms: _611  and  _612
REMARK  246  A    between atoms: _612  and  _613
REMARK                            x       y       z     vdW  Elec       q    Type
REMARK                         _______ _______ _______ _____ _____    ______ ____
ROOT
ATOM      1  O   HOH     1     -11.867 -27.521  11.512  0.00  0.00    +0.000 OA
ENDROOT
TORSDOF 0
REMARK  Name = ../refined-set-2016/3tfp/3tfp_pocket.pdb
REMARK  246 active torsions:
REMARK  status: ('A' for Active; 'I' for Inactive)
REMARK    1  A    between atoms: _1  and  _3
REMARK    2  A    between atoms: _3  and  _4
REMARK    3  A    between atoms: _3  and  _6
REMARK    4  A    between atoms: _6  and  _7
REMARK    5  A    between atoms: _10  and  _12
REMARK    6  A    between atoms: _12  and  _13
REMARK    7  A    between atoms: _12  and  _15
REMARK    8  A    between atoms: _15  and  _16
REMARK    9  A    between atoms: _16  and  _17
REMARK   10  A    between atoms: _19  and  _21
REMARK   11  A    between atoms: _21  and  _22
REMARK   12  A    between atoms: _21  and  _24
REMARK   13  A    between atoms: _24  and  _25
REMARK   14  A    between atoms: _30  and  _32
REMARK   15  A    between atoms: _32  and  _33
REMARK   16  A    between atoms: _32  and  _35
REMARK   17  A    between atoms: _35  and  _36
REMARK   18  A    between atoms: _38  and  _40
REMARK   19  A    between atoms: _40  and  _41
REMARK   20  A    between atoms: _40  and  _43
REMARK   21  A    between atoms: _43  and  _44
REMARK   22  A    between atoms: _50  and  _52
REMARK   23  A    between atoms: _52  and  _53
REMARK   24  A    between atoms: _52  and  _55
REMARK   25  A    between atoms: _55  and  _56
REMARK   26  A    between atoms: _58  and  _60
REMARK   27  A    between atoms: _60  and  _61
REMARK   28  A    between atoms: _60  and  _63
REMARK   29  A    between atoms: _63  and  _64
REMARK   30  A    between atoms: _70  and  _72
REMARK   31  A    between atoms: _72  and  _73
REMARK   32  A    between atoms: _76  and  _78
REMARK   33  A    between atoms: _78  and  _79
REMARK   34  A    between atoms: _78  and  _81
REMARK   35  A    between atoms: _84  and  _86
REMARK   36  A    between atoms: _86  and  _87
REMARK   37  A    between atoms: _86  and  _89
REMARK   38  A    between atoms: _89  and  _90
REMARK   39  A    between atoms: _100  and  _102
REMARK   40  A    between atoms: _102  and  _103
REMARK   41  A    between atoms: _106  and  _108
REMARK   42  A    between atoms: _108  and  _109
REMARK   43  A    between atoms: _108  and  _111
REMARK   44  A    between atoms: _111  and  _112
REMARK   45  A    between atoms: _115  and  _117
REMARK   46  A    between atoms: _117  and  _118
REMARK   47  A    between atoms: _117  and  _120
REMARK   48  A    between atoms: _120  and  _121
REMARK   49  A    between atoms: _126  and  _127
REMARK   50  A    between atoms: _129  and  _131
REMARK   51  A    between atoms: _131  and  _132
REMARK   52  A    between atoms: _135  and  _137
REMARK   53  A    between atoms: _137  and  _138
REMARK   54  A    between atoms: _137  and  _140
REMARK   55  A    between atoms: _143  and  _145
REMARK   56  A    between atoms: _145  and  _146
REMARK   57  A    between atoms: _145  and  _148
REMARK   58  A    between atoms: _150  and  _152
REMARK   59  A    between atoms: _152  and  _153
REMARK   60  A    between atoms: _152  and  _155
REMARK   61  A    between atoms: _155  and  _156
REMARK   62  A    between atoms: _156  and  _157
REMARK   63  A    between atoms: _157  and  _158
REMARK   64  A    between atoms: _167  and  _169
REMARK   65  A    between atoms: _169  and  _170
REMARK   66  A    between atoms: _169  and  _172
REMARK   67  A    between atoms: _172  and  _173
REMARK   68  A    between atoms: _173  and  _174
REMARK   69  A    between atoms: _174  and  _175
REMARK   70  A    between atoms: _175  and  _176
REMARK   71  A    between atoms: _180  and  _182
REMARK   72  A    between atoms: _182  and  _183
REMARK   73  A    between atoms: _182  and  _185
REMARK   74  A    between atoms: _185  and  _186
REMARK   75  A    between atoms: _189  and  _191
REMARK   76  A    between atoms: _191  and  _192
REMARK   77  A    between atoms: _191  and  _194
REMARK   78  A    between atoms: _194  and  _195
REMARK   79  A    between atoms: _198  and  _200
REMARK   80  A    between atoms: _200  and  _201
REMARK   81  A    between atoms: _200  and  _203
REMARK   82  A    between atoms: _203  and  _204
REMARK   83  A    between atoms: _207  and  _209
REMARK   84  A    between atoms: _209  and  _210
REMARK   85  A    between atoms: _209  and  _212
REMARK   86  A    between atoms: _212  and  _213
REMARK   87  A    between atoms: _219  and  _221
REMARK   88  A    between atoms: _221  and  _222
REMARK   89  A    between atoms: _221  and  _224
REMARK   90  A    between atoms: _224  and  _225
REMARK   91  A    between atoms: _228  and  _230
REMARK   92  A    between atoms: _230  and  _231
REMARK   93  A    between atoms: _230  and  _233
REMARK   94  A    between atoms: _233  and  _234
REMARK   95  A    between atoms: _237  and  _239
REMARK   96  A    between atoms: _239  and  _240
REMARK   97  A    between atoms: _239  and  _242
REMARK   98  A    between atoms: _242  and  _243
REMARK   99  A    between atoms: _246  and  _248
REMARK  100  A    between atoms: _248  and  _249
REMARK  101  A    between atoms: _248  and  _251
REMARK  102  A    between atoms: _254  and  _256
REMARK  103  A    between atoms: _256  and  _257
REMARK  104  A    between atoms: _256  and  _259
REMARK  105  A    between atoms: _259  and  _260
REMARK  106  A    between atoms: _265  and  _266
REMARK  107  A    between atoms: _268  and  _270
REMARK  108  A    between atoms: _270  and  _271
REMARK  109  A    between atoms: _270  and  _273
REMARK  110  A    between atoms: _275  and  _277
REMARK  111  A    between atoms: _277  and  _278
REMARK  112  A    between atoms: _280  and  _282
REMARK  113  A    between atoms: _282  and  _283
REMARK  114  A    between atoms: _282  and  _285
REMARK  115  A    between atoms: _288  and  _290
REMARK  116  A    between atoms: _290  and  _291
REMARK  117  A    between atoms: _294  and  _296
REMARK  118  A    between atoms: _296  and  _297
REMARK  119  A    between atoms: _299  and  _301
REMARK  120  A    between atoms: _301  and  _302
REMARK  121  A    between atoms: _301  and  _304
REMARK  122  A    between atoms: _304  and  _305
REMARK  123  A    between atoms: _308  and  _310
REMARK  124  A    between atoms: _310  and  _311
REMARK  125  A    between atoms: _310  and  _313
REMARK  126  A    between atoms: _316  and  _318
REMARK  127  A    between atoms: _318  and  _319
REMARK  128  A    between atoms: _321  and  _323
REMARK  129  A    between atoms: _323  and  _324
REMARK  130  A    between atoms: _323  and  _326
REMARK  131  A    between atoms: _326  and  _327
REMARK  132  A    between atoms: _327  and  _328
REMARK  133  A    between atoms: _331  and  _333
REMARK  134  A    between atoms: _333  and  _334
REMARK  135  A    between atoms: _333  and  _336
REMARK  136  A    between atoms: _339  and  _341
REMARK  137  A    between atoms: _341  and  _342
REMARK  138  A    between atoms: _341  and  _344
REMARK  139  A    between atoms: _344  and  _345
REMARK  140  A    between atoms: _348  and  _350
REMARK  141  A    between atoms: _350  and  _351
REMARK  142  A    between atoms: _350  and  _353
REMARK  143  A    between atoms: _353  and  _354
REMARK  144  A    between atoms: _357  and  _359
REMARK  145  A    between atoms: _359  and  _360
REMARK  146  A    between atoms: _359  and  _362
REMARK  147  A    between atoms: _362  and  _363
REMARK  148  A    between atoms: _366  and  _368
REMARK  149  A    between atoms: _368  and  _369
REMARK  150  A    between atoms: _368  and  _371
REMARK  151  A    between atoms: _371  and  _372
REMARK  152  A    between atoms: _377  and  _378
REMARK  153  A    between atoms: _380  and  _382
REMARK  154  A    between atoms: _382  and  _383
REMARK  155  A    between atoms: _382  and  _385
REMARK  156  A    between atoms: _388  and  _390
REMARK  157  A    between atoms: _390  and  _391
REMARK  158  A    between atoms: _394  and  _396
REMARK  159  A    between atoms: _396  and  _397
REMARK  160  A    between atoms: _396  and  _399
REMARK  161  A    between atoms: _399  and  _400
REMARK  162  A    between atoms: _400  and  _401
REMARK  163  A    between atoms: _401  and  _402
REMARK  164  A    between atoms: _411  and  _413
REMARK  165  A    between atoms: _413  and  _414
REMARK  166  A    between atoms: _413  and  _416
REMARK  167  A    between atoms: _416  and  _417
REMARK  168  A    between atoms: _417  and  _418
REMARK  169  A    between atoms: _418  and  _419
REMARK  170  A    between atoms: _428  and  _430
REMARK  171  A    between atoms: _430  and  _431
REMARK  172  A    between atoms: _430  and  _433
REMARK  173  A    between atoms: _433  and  _434
REMARK  174  A    between atoms: _437  and  _439
REMARK  175  A    between atoms: _439  and  _440
REMARK  176  A    between atoms: _442  and  _444
REMARK  177  A    between atoms: _444  and  _445
REMARK  178  A    between atoms: _444  and  _447
REMARK  179  A    between atoms: _447  and  _448
REMARK  180  A    between atoms: _448  and  _449
REMARK  181  A    between atoms: _452  and  _454
REMARK  182  A    between atoms: _454  and  _455
REMARK  183  A    between atoms: _454  and  _457
REMARK  184  A    between atoms: _457  and  _458
REMARK  185  A    between atoms: _460  and  _462
REMARK  186  A    between atoms: _462  and  _463
REMARK  187  A    between atoms: _462  and  _465
REMARK  188  A    between atoms: _465  and  _466
REMARK  189  A    between atoms: _469  and  _471
REMARK  190  A    between atoms: _471  and  _472
REMARK  191  A    between atoms: _471  and  _474
REMARK  192  A    between atoms: _474  and  _475
REMARK  193  A    between atoms: _475  and  _476
REMARK  194  A    between atoms: _481  and  _483
REMARK  195  A    between atoms: _483  and  _484
REMARK  196  A    between atoms: _483  and  _486
REMARK  197  A    between atoms: _486  and  _487
REMARK  198  A    between atoms: _492  and  _494
REMARK  199  A    between atoms: _494  and  _495
REMARK  200  A    between atoms: _494  and  _497
REMARK  201  A    between atoms: _497  and  _498
REMARK  202  A    between atoms: _501  and  _503
REMARK  203  A    between atoms: _503  and  _504
REMARK  204  A    between atoms: _503  and  _506
REMARK  205  A    between atoms: _506  and  _507
REMARK  206  A    between atoms: _507  and  _508
REMARK  207  A    between atoms: _508  and  _509
REMARK  208  A    between atoms: _518  and  _520
REMARK  209  A    between atoms: _520  and  _521
REMARK  210  A    between atoms: _520  and  _523
REMARK  211  A    between atoms: _523  and  _524
REMARK  212  A    between atoms: _527  and  _529
REMARK  213  A    between atoms: _529  and  _530
REMARK  214  A    between atoms: _529  and  _532
REMARK  215  A    between atoms: _532  and  _533
REMARK  216  A    between atoms: _536  and  _538
REMARK  217  A    between atoms: _538  and  _539
REMARK  218  A    between atoms: _538  and  _541
REMARK  219  A    between atoms: _541  and  _542
REMARK  220  A    between atoms: _547  and  _548
REMARK  221  A    between atoms: _550  and  _552
REMARK  222  A    between atoms: _552  and  _553
REMARK  223  A    between atoms: _552  and  _555
REMARK  224  A    between atoms: _558  and  _560
REMARK  225  A    between atoms: _560  and  _561
REMARK  226  A    between atoms: _560  and  _563
REMARK  227  A    between atoms: _563  and  _564
REMARK  228  A    between atoms: _570  and  _572
REMARK  229  A    between atoms: _572  and  _573
REMARK  230  A    between atoms: _572  and  _575
REMARK  231  A    between atoms: _575  and  _576
REMARK  232  A    between atoms: _579  and  _581
REMARK  233  A    between atoms: _581  and  _582
REMARK  234  A    between atoms: _585  and  _587
REMARK  235  A    between atoms: _587  and  _588
REMARK  236  A    between atoms: _591  and  _593
REMARK  237  A    between atoms: _593  and  _594
REMARK  238  A    between atoms: _593  and  _596
REMARK  239  A    between atoms: _596  and  _597
REMARK  240  A    between atoms: _602  and  _603
REMARK  241  A    between atoms: _605  and  _607
REMARK  242  A    between atoms: _607  and  _608
REMARK  243  A    between atoms: _607  and  _610
REMARK  244  A    between atoms: _610  and  _611
REMARK  245  A    between atoms: _611  and  _612
REMARK  246  A    between atoms: _612  and  _613
REMARK                            x       y       z     vdW  Elec       q    Type
REMARK                         _______ _______ _______ _____ _____    ______ ____
ROOT
ATOM      1  O   HOH     1      -7.692 -24.016   7.369  0.00  0.00    +0.000 OA
ENDROOT
TORSDOF 0
REMARK  Name = ../refined-set-2016/3tfp/3tfp_pocket.pdb
REMARK  246 active torsions:
REMARK  status: ('A' for Active; 'I' for Inactive)
REMARK    1  A    between atoms: _1  and  _3
REMARK    2  A    between atoms: _3  and  _4
REMARK    3  A    between atoms: _3  and  _6
REMARK    4  A    between atoms: _6  and  _7
REMARK    5  A    between atoms: _10  and  _12
REMARK    6  A    between atoms: _12  and  _13
REMARK    7  A    between atoms: _12  and  _15
REMARK    8  A    between atoms: _15  and  _16
REMARK    9  A    between atoms: _16  and  _17
REMARK   10  A    between atoms: _19  and  _21
REMARK   11  A    between atoms: _21  and  _22
REMARK   12  A    between atoms: _21  and  _24
REMARK   13  A    between atoms: _24  and  _25
REMARK   14  A    between atoms: _30  and  _32
REMARK   15  A    between atoms: _32  and  _33
REMARK   16  A    between atoms: _32  and  _35
REMARK   17  A    between atoms: _35  and  _36
REMARK   18  A    between atoms: _38  and  _40
REMARK   19  A    between atoms: _40  and  _41
REMARK   20  A    between atoms: _40  and  _43
REMARK   21  A    between atoms: _43  and  _44
REMARK   22  A    between atoms: _50  and  _52
REMARK   23  A    between atoms: _52  and  _53
REMARK   24  A    between atoms: _52  and  _55
REMARK   25  A    between atoms: _55  and  _56
REMARK   26  A    between atoms: _58  and  _60
REMARK   27  A    between atoms: _60  and  _61
REMARK   28  A    between atoms: _60  and  _63
REMARK   29  A    between atoms: _63  and  _64
REMARK   30  A    between atoms: _70  and  _72
REMARK   31  A    between atoms: _72  and  _73
REMARK   32  A    between atoms: _76  and  _78
REMARK   33  A    between atoms: _78  and  _79
REMARK   34  A    between atoms: _78  and  _81
REMARK   35  A    between atoms: _84  and  _86
REMARK   36  A    between atoms: _86  and  _87
REMARK   37  A    between atoms: _86  and  _89
REMARK   38  A    between atoms: _89  and  _90
REMARK   39  A    between atoms: _100  and  _102
REMARK   40  A    between atoms: _102  and  _103
REMARK   41  A    between atoms: _106  and  _108
REMARK   42  A    between atoms: _108  and  _109
REMARK   43  A    between atoms: _108  and  _111
REMARK   44  A    between atoms: _111  and  _112
REMARK   45  A    between atoms: _115  and  _117
REMARK   46  A    between atoms: _117  and  _118
REMARK   47  A    between atoms: _117  and  _120
REMARK   48  A    between atoms: _120  and  _121
REMARK   49  A    between atoms: _126  and  _127
REMARK   50  A    between atoms: _129  and  _131
REMARK   51  A    between atoms: _131  and  _132
REMARK   52  A    between atoms: _135  and  _137
REMARK   53  A    between atoms: _137  and  _138
REMARK   54  A    between atoms: _137  and  _140
REMARK   55  A    between atoms: _143  and  _145
REMARK   56  A    between atoms: _145  and  _146
REMARK   57  A    between atoms: _145  and  _148
REMARK   58  A    between atoms: _150  and  _152
REMARK   59  A    between atoms: _152  and  _153
REMARK   60  A    between atoms: _152  and  _155
REMARK   61  A    between atoms: _155  and  _156
REMARK   62  A    between atoms: _156  and  _157
REMARK   63  A    between atoms: _157  and  _158
REMARK   64  A    between atoms: _167  and  _169
REMARK   65  A    between atoms: _169  and  _170
REMARK   66  A    between atoms: _169  and  _172
REMARK   67  A    between atoms: _172  and  _173
REMARK   68  A    between atoms: _173  and  _174
REMARK   69  A    between atoms: _174  and  _175
REMARK   70  A    between atoms: _175  and  _176
REMARK   71  A    between atoms: _180  and  _182
REMARK   72  A    between atoms: _182  and  _183
REMARK   73  A    between atoms: _182  and  _185
REMARK   74  A    between atoms: _185  and  _186
REMARK   75  A    between atoms: _189  and  _191
REMARK   76  A    between atoms: _191  and  _192
REMARK   77  A    between atoms: _191  and  _194
REMARK   78  A    between atoms: _194  and  _195
REMARK   79  A    between atoms: _198  and  _200
REMARK   80  A    between atoms: _200  and  _201
REMARK   81  A    between atoms: _200  and  _203
REMARK   82  A    between atoms: _203  and  _204
REMARK   83  A    between atoms: _207  and  _209
REMARK   84  A    between atoms: _209  and  _210
REMARK   85  A    between atoms: _209  and  _212
REMARK   86  A    between atoms: _212  and  _213
REMARK   87  A    between atoms: _219  and  _221
REMARK   88  A    between atoms: _221  and  _222
REMARK   89  A    between atoms: _221  and  _224
REMARK   90  A    between atoms: _224  and  _225
REMARK   91  A    between atoms: _228  and  _230
REMARK   92  A    between atoms: _230  and  _231
REMARK   93  A    between atoms: _230  and  _233
REMARK   94  A    between atoms: _233  and  _234
REMARK   95  A    between atoms: _237  and  _239
REMARK   96  A    between atoms: _239  and  _240
REMARK   97  A    between atoms: _239  and  _242
REMARK   98  A    between atoms: _242  and  _243
REMARK   99  A    between atoms: _246  and  _248
REMARK  100  A    between atoms: _248  and  _249
REMARK  101  A    between atoms: _248  and  _251
REMARK  102  A    between atoms: _254  and  _256
REMARK  103  A    between atoms: _256  and  _257
REMARK  104  A    between atoms: _256  and  _259
REMARK  105  A    between atoms: _259  and  _260
REMARK  106  A    between atoms: _265  and  _266
REMARK  107  A    between atoms: _268  and  _270
REMARK  108  A    between atoms: _270  and  _271
REMARK  109  A    between atoms: _270  and  _273
REMARK  110  A    between atoms: _275  and  _277
REMARK  111  A    between atoms: _277  and  _278
REMARK  112  A    between atoms: _280  and  _282
REMARK  113  A    between atoms: _282  and  _283
REMARK  114  A    between atoms: _282  and  _285
REMARK  115  A    between atoms: _288  and  _290
REMARK  116  A    between atoms: _290  and  _291
REMARK  117  A    between atoms: _294  and  _296
REMARK  118  A    between atoms: _296  and  _297
REMARK  119  A    between atoms: _299  and  _301
REMARK  120  A    between atoms: _301  and  _302
REMARK  121  A    between atoms: _301  and  _304
REMARK  122  A    between atoms: _304  and  _305
REMARK  123  A    between atoms: _308  and  _310
REMARK  124  A    between atoms: _310  and  _311
REMARK  125  A    between atoms: _310  and  _313
REMARK  126  A    between atoms: _316  and  _318
REMARK  127  A    between atoms: _318  and  _319
REMARK  128  A    between atoms: _321  and  _323
REMARK  129  A    between atoms: _323  and  _324
REMARK  130  A    between atoms: _323  and  _326
REMARK  131  A    between atoms: _326  and  _327
REMARK  132  A    between atoms: _327  and  _328
REMARK  133  A    between atoms: _331  and  _333
REMARK  134  A    between atoms: _333  and  _334
REMARK  135  A    between atoms: _333  and  _336
REMARK  136  A    between atoms: _339  and  _341
REMARK  137  A    between atoms: _341  and  _342
REMARK  138  A    between atoms: _341  and  _344
REMARK  139  A    between atoms: _344  and  _345
REMARK  140  A    between atoms: _348  and  _350
REMARK  141  A    between atoms: _350  and  _351
REMARK  142  A    between atoms: _350  and  _353
REMARK  143  A    between atoms: _353  and  _354
REMARK  144  A    between atoms: _357  and  _359
REMARK  145  A    between atoms: _359  and  _360
REMARK  146  A    between atoms: _359  and  _362
REMARK  147  A    between atoms: _362  and  _363
REMARK  148  A    between atoms: _366  and  _368
REMARK  149  A    between atoms: _368  and  _369
REMARK  150  A    between atoms: _368  and  _371
REMARK  151  A    between atoms: _371  and  _372
REMARK  152  A    between atoms: _377  and  _378
REMARK  153  A    between atoms: _380  and  _382
REMARK  154  A    between atoms: _382  and  _383
REMARK  155  A    between atoms: _382  and  _385
REMARK  156  A    between atoms: _388  and  _390
REMARK  157  A    between atoms: _390  and  _391
REMARK  158  A    between atoms: _394  and  _396
REMARK  159  A    between atoms: _396  and  _397
REMARK  160  A    between atoms: _396  and  _399
REMARK  161  A    between atoms: _399  and  _400
REMARK  162  A    between atoms: _400  and  _401
REMARK  163  A    between atoms: _401  and  _402
REMARK  164  A    between atoms: _411  and  _413
REMARK  165  A    between atoms: _413  and  _414
REMARK  166  A    between atoms: _413  and  _416
REMARK  167  A    between atoms: _416  and  _417
REMARK  168  A    between atoms: _417  and  _418
REMARK  169  A    between atoms: _418  and  _419
REMARK  170  A    between atoms: _428  and  _430
REMARK  171  A    between atoms: _430  and  _431
REMARK  172  A    between atoms: _430  and  _433
REMARK  173  A    between atoms: _433  and  _434
REMARK  174  A    between atoms: _437  and  _439
REMARK  175  A    between atoms: _439  and  _440
REMARK  176  A    between atoms: _442  and  _444
REMARK  177  A    between atoms: _444  and  _445
REMARK  178  A    between atoms: _444  and  _447
REMARK  179  A    between atoms: _447  and  _448
REMARK  180  A    between atoms: _448  and  _449
REMARK  181  A    between atoms: _452  and  _454
REMARK  182  A    between atoms: _454  and  _455
REMARK  183  A    between atoms: _454  and  _457
REMARK  184  A    between atoms: _457  and  _458
REMARK  185  A    between atoms: _460  and  _462
REMARK  186  A    between atoms: _462  and  _463
REMARK  187  A    between atoms: _462  and  _465
REMARK  188  A    between atoms: _465  and  _466
REMARK  189  A    between atoms: _469  and  _471
REMARK  190  A    between atoms: _471  and  _472
REMARK  191  A    between atoms: _471  and  _474
REMARK  192  A    between atoms: _474  and  _475
REMARK  193  A    between atoms: _475  and  _476
REMARK  194  A    between atoms: _481  and  _483
REMARK  195  A    between atoms: _483  and  _484
REMARK  196  A    between atoms: _483  and  _486
REMARK  197  A    between atoms: _486  and  _487
REMARK  198  A    between atoms: _492  and  _494
REMARK  199  A    between atoms: _494  and  _495
REMARK  200  A    between atoms: _494  and  _497
REMARK  201  A    between atoms: _497  and  _498
REMARK  202  A    between atoms: _501  and  _503
REMARK  203  A    between atoms: _503  and  _504
REMARK  204  A    between atoms: _503  and  _506
REMARK  205  A    between atoms: _506  and  _507
REMARK  206  A    between atoms: _507  and  _508
REMARK  207  A    between atoms: _508  and  _509
REMARK  208  A    between atoms: _518  and  _520
REMARK  209  A    between atoms: _520  and  _521
REMARK  210  A    between atoms: _520  and  _523
REMARK  211  A    between atoms: _523  and  _524
REMARK  212  A    between atoms: _527  and  _529
REMARK  213  A    between atoms: _529  and  _530
REMARK  214  A    between atoms: _529  and  _532
REMARK  215  A    between atoms: _532  and  _533
REMARK  216  A    between atoms: _536  and  _538
REMARK  217  A    between atoms: _538  and  _539
REMARK  218  A    between atoms: _538  and  _541
REMARK  219  A    between atoms: _541  and  _542
REMARK  220  A    between atoms: _547  and  _548
REMARK  221  A    between atoms: _550  and  _552
REMARK  222  A    between atoms: _552  and  _553
REMARK  223  A    between atoms: _552  and  _555
REMARK  224  A    between atoms: _558  and  _560
REMARK  225  A    between atoms: _560  and  _561
REMARK  226  A    between atoms: _560  and  _563
REMARK  227  A    between atoms: _563  and  _564
REMARK  228  A    between atoms: _570  and  _572
REMARK  229  A    between atoms: _572  and  _573
REMARK  230  A    between atoms: _572  and  _575
REMARK  231  A    between atoms: _575  and  _576
REMARK  232  A    between atoms: _579  and  _581
REMARK  233  A    between atoms: _581  and  _582
REMARK  234  A    between atoms: _585  and  _587
REMARK  235  A    between atoms: _587  and  _588
REMARK  236  A    between atoms: _591  and  _593
REMARK  237  A    between atoms: _593  and  _594
REMARK  238  A    between atoms: _593  and  _596
REMARK  239  A    between atoms: _596  and  _597
REMARK  240  A    between atoms: _602  and  _603
REMARK  241  A    between atoms: _605  and  _607
REMARK  242  A    between atoms: _607  and  _608
REMARK  243  A    between atoms: _607  and  _610
REMARK  244  A    between atoms: _610  and  _611
REMARK  245  A    between atoms: _611  and  _612
REMARK  246  A    between atoms: _612  and  _613
REMARK                            x       y       z     vdW  Elec       q    Type
REMARK                         _______ _______ _______ _____ _____    ______ ____
ROOT
ATOM      1  O   HOH     1     -11.816 -27.131  15.448  0.00  0.00    +0.000 OA
ENDROOT
TORSDOF 0
REMARK  Name = ../refined-set-2016/3tfp/3tfp_pocket.pdb
REMARK  246 active torsions:
REMARK  status: ('A' for Active; 'I' for Inactive)
REMARK    1  A    between atoms: _1  and  _3
REMARK    2  A    between atoms: _3  and  _4
REMARK    3  A    between atoms: _3  and  _6
REMARK    4  A    between atoms: _6  and  _7
REMARK    5  A    between atoms: _10  and  _12
REMARK    6  A    between atoms: _12  and  _13
REMARK    7  A    between atoms: _12  and  _15
REMARK    8  A    between atoms: _15  and  _16
REMARK    9  A    between atoms: _16  and  _17
REMARK   10  A    between atoms: _19  and  _21
REMARK   11  A    between atoms: _21  and  _22
REMARK   12  A    between atoms: _21  and  _24
REMARK   13  A    between atoms: _24  and  _25
REMARK   14  A    between atoms: _30  and  _32
REMARK   15  A    between atoms: _32  and  _33
REMARK   16  A    between atoms: _32  and  _35
REMARK   17  A    between atoms: _35  and  _36
REMARK   18  A    between atoms: _38  and  _40
REMARK   19  A    between atoms: _40  and  _41
REMARK   20  A    between atoms: _40  and  _43
REMARK   21  A    between atoms: _43  and  _44
REMARK   22  A    between atoms: _50  and  _52
REMARK   23  A    between atoms: _52  and  _53
REMARK   24  A    between atoms: _52  and  _55
REMARK   25  A    between atoms: _55  and  _56
REMARK   26  A    between atoms: _58  and  _60
REMARK   27  A    between atoms: _60  and  _61
REMARK   28  A    between atoms: _60  and  _63
REMARK   29  A    between atoms: _63  and  _64
REMARK   30  A    between atoms: _70  and  _72
REMARK   31  A    between atoms: _72  and  _73
REMARK   32  A    between atoms: _76  and  _78
REMARK   33  A    between atoms: _78  and  _79
REMARK   34  A    between atoms: _78  and  _81
REMARK   35  A    between atoms: _84  and  _86
REMARK   36  A    between atoms: _86  and  _87
REMARK   37  A    between atoms: _86  and  _89
REMARK   38  A    between atoms: _89  and  _90
REMARK   39  A    between atoms: _100  and  _102
REMARK   40  A    between atoms: _102  and  _103
REMARK   41  A    between atoms: _106  and  _108
REMARK   42  A    between atoms: _108  and  _109
REMARK   43  A    between atoms: _108  and  _111
REMARK   44  A    between atoms: _111  and  _112
REMARK   45  A    between atoms: _115  and  _117
REMARK   46  A    between atoms: _117  and  _118
REMARK   47  A    between atoms: _117  and  _120
REMARK   48  A    between atoms: _120  and  _121
REMARK   49  A    between atoms: _126  and  _127
REMARK   50  A    between atoms: _129  and  _131
REMARK   51  A    between atoms: _131  and  _132
REMARK   52  A    between atoms: _135  and  _137
REMARK   53  A    between atoms: _137  and  _138
REMARK   54  A    between atoms: _137  and  _140
REMARK   55  A    between atoms: _143  and  _145
REMARK   56  A    between atoms: _145  and  _146
REMARK   57  A    between atoms: _145  and  _148
REMARK   58  A    between atoms: _150  and  _152
REMARK   59  A    between atoms: _152  and  _153
REMARK   60  A    between atoms: _152  and  _155
REMARK   61  A    between atoms: _155  and  _156
REMARK   62  A    between atoms: _156  and  _157
REMARK   63  A    between atoms: _157  and  _158
REMARK   64  A    between atoms: _167  and  _169
REMARK   65  A    between atoms: _169  and  _170
REMARK   66  A    between atoms: _169  and  _172
REMARK   67  A    between atoms: _172  and  _173
REMARK   68  A    between atoms: _173  and  _174
REMARK   69  A    between atoms: _174  and  _175
REMARK   70  A    between atoms: _175  and  _176
REMARK   71  A    between atoms: _180  and  _182
REMARK   72  A    between atoms: _182  and  _183
REMARK   73  A    between atoms: _182  and  _185
REMARK   74  A    between atoms: _185  and  _186
REMARK   75  A    between atoms: _189  and  _191
REMARK   76  A    between atoms: _191  and  _192
REMARK   77  A    between atoms: _191  and  _194
REMARK   78  A    between atoms: _194  and  _195
REMARK   79  A    between atoms: _198  and  _200
REMARK   80  A    between atoms: _200  and  _201
REMARK   81  A    between atoms: _200  and  _203
REMARK   82  A    between atoms: _203  and  _204
REMARK   83  A    between atoms: _207  and  _209
REMARK   84  A    between atoms: _209  and  _210
REMARK   85  A    between atoms: _209  and  _212
REMARK   86  A    between atoms: _212  and  _213
REMARK   87  A    between atoms: _219  and  _221
REMARK   88  A    between atoms: _221  and  _222
REMARK   89  A    between atoms: _221  and  _224
REMARK   90  A    between atoms: _224  and  _225
REMARK   91  A    between atoms: _228  and  _230
REMARK   92  A    between atoms: _230  and  _231
REMARK   93  A    between atoms: _230  and  _233
REMARK   94  A    between atoms: _233  and  _234
REMARK   95  A    between atoms: _237  and  _239
REMARK   96  A    between atoms: _239  and  _240
REMARK   97  A    between atoms: _239  and  _242
REMARK   98  A    between atoms: _242  and  _243
REMARK   99  A    between atoms: _246  and  _248
REMARK  100  A    between atoms: _248  and  _249
REMARK  101  A    between atoms: _248  and  _251
REMARK  102  A    between atoms: _254  and  _256
REMARK  103  A    between atoms: _256  and  _257
REMARK  104  A    between atoms: _256  and  _259
REMARK  105  A    between atoms: _259  and  _260
REMARK  106  A    between atoms: _265  and  _266
REMARK  107  A    between atoms: _268  and  _270
REMARK  108  A    between atoms: _270  and  _271
REMARK  109  A    between atoms: _270  and  _273
REMARK  110  A    between atoms: _275  and  _277
REMARK  111  A    between atoms: _277  and  _278
REMARK  112  A    between atoms: _280  and  _282
REMARK  113  A    between atoms: _282  and  _283
REMARK  114  A    between atoms: _282  and  _285
REMARK  115  A    between atoms: _288  and  _290
REMARK  116  A    between atoms: _290  and  _291
REMARK  117  A    between atoms: _294  and  _296
REMARK  118  A    between atoms: _296  and  _297
REMARK  119  A    between atoms: _299  and  _301
REMARK  120  A    between atoms: _301  and  _302
REMARK  121  A    between atoms: _301  and  _304
REMARK  122  A    between atoms: _304  and  _305
REMARK  123  A    between atoms: _308  and  _310
REMARK  124  A    between atoms: _310  and  _311
REMARK  125  A    between atoms: _310  and  _313
REMARK  126  A    between atoms: _316  and  _318
REMARK  127  A    between atoms: _318  and  _319
REMARK  128  A    between atoms: _321  and  _323
REMARK  129  A    between atoms: _323  and  _324
REMARK  130  A    between atoms: _323  and  _326
REMARK  131  A    between atoms: _326  and  _327
REMARK  132  A    between atoms: _327  and  _328
REMARK  133  A    between atoms: _331  and  _333
REMARK  134  A    between atoms: _333  and  _334
REMARK  135  A    between atoms: _333  and  _336
REMARK  136  A    between atoms: _339  and  _341
REMARK  137  A    between atoms: _341  and  _342
REMARK  138  A    between atoms: _341  and  _344
REMARK  139  A    between atoms: _344  and  _345
REMARK  140  A    between atoms: _348  and  _350
REMARK  141  A    between atoms: _350  and  _351
REMARK  142  A    between atoms: _350  and  _353
REMARK  143  A    between atoms: _353  and  _354
REMARK  144  A    between atoms: _357  and  _359
REMARK  145  A    between atoms: _359  and  _360
REMARK  146  A    between atoms: _359  and  _362
REMARK  147  A    between atoms: _362  and  _363
REMARK  148  A    between atoms: _366  and  _368
REMARK  149  A    between atoms: _368  and  _369
REMARK  150  A    between atoms: _368  and  _371
REMARK  151  A    between atoms: _371  and  _372
REMARK  152  A    between atoms: _377  and  _378
REMARK  153  A    between atoms: _380  and  _382
REMARK  154  A    between atoms: _382  and  _383
REMARK  155  A    between atoms: _382  and  _385
REMARK  156  A    between atoms: _388  and  _390
REMARK  157  A    between atoms: _390  and  _391
REMARK  158  A    between atoms: _394  and  _396
REMARK  159  A    between atoms: _396  and  _397
REMARK  160  A    between atoms: _396  and  _399
REMARK  161  A    between atoms: _399  and  _400
REMARK  162  A    between atoms: _400  and  _401
REMARK  163  A    between atoms: _401  and  _402
REMARK  164  A    between atoms: _411  and  _413
REMARK  165  A    between atoms: _413  and  _414
REMARK  166  A    between atoms: _413  and  _416
REMARK  167  A    between atoms: _416  and  _417
REMARK  168  A    between atoms: _417  and  _418
REMARK  169  A    between atoms: _418  and  _419
REMARK  170  A    between atoms: _428  and  _430
REMARK  171  A    between atoms: _430  and  _431
REMARK  172  A    between atoms: _430  and  _433
REMARK  173  A    between atoms: _433  and  _434
REMARK  174  A    between atoms: _437  and  _439
REMARK  175  A    between atoms: _439  and  _440
REMARK  176  A    between atoms: _442  and  _444
REMARK  177  A    between atoms: _444  and  _445
REMARK  178  A    between atoms: _444  and  _447
REMARK  179  A    between atoms: _447  and  _448
REMARK  180  A    between atoms: _448  and  _449
REMARK  181  A    between atoms: _452  and  _454
REMARK  182  A    between atoms: _454  and  _455
REMARK  183  A    between atoms: _454  and  _457
REMARK  184  A    between atoms: _457  and  _458
REMARK  185  A    between atoms: _460  and  _462
REMARK  186  A    between atoms: _462  and  _463
REMARK  187  A    between atoms: _462  and  _465
REMARK  188  A    between atoms: _465  and  _466
REMARK  189  A    between atoms: _469  and  _471
REMARK  190  A    between atoms: _471  and  _472
REMARK  191  A    between atoms: _471  and  _474
REMARK  192  A    between atoms: _474  and  _475
REMARK  193  A    between atoms: _475  and  _476
REMARK  194  A    between atoms: _481  and  _483
REMARK  195  A    between atoms: _483  and  _484
REMARK  196  A    between atoms: _483  and  _486
REMARK  197  A    between atoms: _486  and  _487
REMARK  198  A    between atoms: _492  and  _494
REMARK  199  A    between atoms: _494  and  _495
REMARK  200  A    between atoms: _494  and  _497
REMARK  201  A    between atoms: _497  and  _498
REMARK  202  A    between atoms: _501  and  _503
REMARK  203  A    between atoms: _503  and  _504
REMARK  204  A    between atoms: _503  and  _506
REMARK  205  A    between atoms: _506  and  _507
REMARK  206  A    between atoms: _507  and  _508
REMARK  207  A    between atoms: _508  and  _509
REMARK  208  A    between atoms: _518  and  _520
REMARK  209  A    between atoms: _520  and  _521
REMARK  210  A    between atoms: _520  and  _523
REMARK  211  A    between atoms: _523  and  _524
REMARK  212  A    between atoms: _527  and  _529
REMARK  213  A    between atoms: _529  and  _530
REMARK  214  A    between atoms: _529  and  _532
REMARK  215  A    between atoms: _532  and  _533
REMARK  216  A    between atoms: _536  and  _538
REMARK  217  A    between atoms: _538  and  _539
REMARK  218  A    between atoms: _538  and  _541
REMARK  219  A    between atoms: _541  and  _542
REMARK  220  A    between atoms: _547  and  _548
REMARK  221  A    between atoms: _550  and  _552
REMARK  222  A    between atoms: _552  and  _553
REMARK  223  A    between atoms: _552  and  _555
REMARK  224  A    between atoms: _558  and  _560
REMARK  225  A    between atoms: _560  and  _561
REMARK  226  A    between atoms: _560  and  _563
REMARK  227  A    between atoms: _563  and  _564
REMARK  228  A    between atoms: _570  and  _572
REMARK  229  A    between atoms: _572  and  _573
REMARK  230  A    between atoms: _572  and  _575
REMARK  231  A    between atoms: _575  and  _576
REMARK  232  A    between atoms: _579  and  _581
REMARK  233  A    between atoms: _581  and  _582
REMARK  234  A    between atoms: _585  and  _587
REMARK  235  A    between atoms: _587  and  _588
REMARK  236  A    between atoms: _591  and  _593
REMARK  237  A    between atoms: _593  and  _594
REMARK  238  A    between atoms: _593  and  _596
REMARK  239  A    between atoms: _596  and  _597
REMARK  240  A    between atoms: _602  and  _603
REMARK  241  A    between atoms: _605  and  _607
REMARK  242  A    between atoms: _607  and  _608
REMARK  243  A    between atoms: _607  and  _610
REMARK  244  A    between atoms: _610  and  _611
REMARK  245  A    between atoms: _611  and  _612
REMARK  246  A    between atoms: _612  and  _613
REMARK                            x       y       z     vdW  Elec       q    Type
REMARK                         _______ _______ _______ _____ _____    ______ ____
ROOT
ATOM      1  O   HOH     1      -5.228 -20.951   4.232  0.00  0.00    +0.000 OA
ENDROOT
TORSDOF 0
