REMARK  Name = ../refined-set-2016/3b5r/3b5r_pocket.pdb
REMARK  283 active torsions:
REMARK  status: ('A' for Active; 'I' for Inactive)
REMARK    1  A    between atoms: _1  and  _3
REMARK    2  A    between atoms: _3  and  _4
REMARK    3  A    between atoms: _3  and  _6
REMARK    4  A    between atoms: _9  and  _11
REMARK    5  A    between atoms: _11  and  _12
REMARK    6  A    between atoms: _15  and  _17
REMARK    7  A    between atoms: _17  and  _18
REMARK    8  A    between atoms: _17  and  _20
REMARK    9  A    between atoms: _20  and  _21
REMARK   10  A    between atoms: _27  and  _29
REMARK   11  A    between atoms: _29  and  _30
REMARK   12  A    between atoms: _29  and  _32
REMARK   13  A    between atoms: _32  and  _33
REMARK   14  A    between atoms: _36  and  _38
REMARK   15  A    between atoms: _38  and  _39
REMARK   16  A    between atoms: _38  and  _41
REMARK   17  A    between atoms: _41  and  _42
REMARK   18  A    between atoms: _45  and  _47
REMARK   19  A    between atoms: _47  and  _48
REMARK   20  A    between atoms: _47  and  _50
REMARK   21  A    between atoms: _50  and  _51
REMARK   22  A    between atoms: _53  and  _55
REMARK   23  A    between atoms: _55  and  _56
REMARK   24  A    between atoms: _55  and  _58
REMARK   25  A    between atoms: _58  and  _59
REMARK   26  A    between atoms: _61  and  _63
REMARK   27  A    between atoms: _63  and  _64
REMARK   28  A    between atoms: _63  and  _66
REMARK   29  A    between atoms: _66  and  _67
REMARK   30  A    between atoms: _70  and  _72
REMARK   31  A    between atoms: _72  and  _73
REMARK   32  A    between atoms: _72  and  _75
REMARK   33  A    between atoms: _75  and  _76
REMARK   34  A    between atoms: _81  and  _83
REMARK   35  A    between atoms: _83  and  _84
REMARK   36  A    between atoms: _83  and  _86
REMARK   37  A    between atoms: _86  and  _87
REMARK   38  A    between atoms: _87  and  _88
REMARK   39  A    between atoms: _91  and  _93
REMARK   40  A    between atoms: _93  and  _94
REMARK   41  A    between atoms: _93  and  _96
REMARK   42  A    between atoms: _96  and  _97
REMARK   43  A    between atoms: _100  and  _102
REMARK   44  A    between atoms: _102  and  _103
REMARK   45  A    between atoms: _105  and  _107
REMARK   46  A    between atoms: _107  and  _108
REMARK   47  A    between atoms: _107  and  _110
REMARK   48  A    between atoms: _110  and  _111
REMARK   49  A    between atoms: _111  and  _112
REMARK   50  A    between atoms: _115  and  _117
REMARK   51  A    between atoms: _117  and  _118
REMARK   52  A    between atoms: _117  and  _120
REMARK   53  A    between atoms: _120  and  _121
REMARK   54  A    between atoms: _121  and  _122
REMARK   55  A    between atoms: _122  and  _123
REMARK   56  A    between atoms: _132  and  _134
REMARK   57  A    between atoms: _134  and  _135
REMARK   58  A    between atoms: _134  and  _137
REMARK   59  A    between atoms: _137  and  _138
REMARK   60  A    between atoms: _138  and  _139
REMARK   61  A    between atoms: _144  and  _146
REMARK   62  A    between atoms: _146  and  _147
REMARK   63  A    between atoms: _146  and  _149
REMARK   64  A    between atoms: _149  and  _150
REMARK   65  A    between atoms: _153  and  _155
REMARK   66  A    between atoms: _155  and  _156
REMARK   67  A    between atoms: _155  and  _158
REMARK   68  A    between atoms: _158  and  _159
REMARK   69  A    between atoms: _162  and  _164
REMARK   70  A    between atoms: _164  and  _165
REMARK   71  A    between atoms: _164  and  _167
REMARK   72  A    between atoms: _167  and  _168
REMARK   73  A    between atoms: _168  and  _169
REMARK   74  A    between atoms: _174  and  _176
REMARK   75  A    between atoms: _176  and  _177
REMARK   76  A    between atoms: _176  and  _179
REMARK   77  A    between atoms: _179  and  _180
REMARK   78  A    between atoms: _185  and  _186
REMARK   79  A    between atoms: _188  and  _190
REMARK   80  A    between atoms: _190  and  _191
REMARK   81  A    between atoms: _190  and  _193
REMARK   82  A    between atoms: _193  and  _194
REMARK   83  A    between atoms: _196  and  _198
REMARK   84  A    between atoms: _198  and  _199
REMARK   85  A    between atoms: _198  and  _201
REMARK   86  A    between atoms: _201  and  _202
REMARK   87  A    between atoms: _212  and  _214
REMARK   88  A    between atoms: _214  and  _215
REMARK   89  A    between atoms: _214  and  _217
REMARK   90  A    between atoms: _217  and  _218
REMARK   91  A    between atoms: _218  and  _219
REMARK   92  A    between atoms: _221  and  _223
REMARK   93  A    between atoms: _223  and  _224
REMARK   94  A    between atoms: _226  and  _228
REMARK   95  A    between atoms: _228  and  _229
REMARK   96  A    between atoms: _228  and  _231
REMARK   97  A    between atoms: _231  and  _232
REMARK   98  A    between atoms: _235  and  _237
REMARK   99  A    between atoms: _237  and  _238
REMARK  100  A    between atoms: _237  and  _240
REMARK  101  A    between atoms: _240  and  _241
REMARK  102  A    between atoms: _241  and  _242
REMARK  103  A    between atoms: _244  and  _246
REMARK  104  A    between atoms: _246  and  _247
REMARK  105  A    between atoms: _246  and  _249
REMARK  106  A    between atoms: _252  and  _254
REMARK  107  A    between atoms: _254  and  _255
REMARK  108  A    between atoms: _254  and  _257
REMARK  109  A    between atoms: _257  and  _258
REMARK  110  A    between atoms: _264  and  _266
REMARK  111  A    between atoms: _266  and  _267
REMARK  112  A    between atoms: _270  and  _272
REMARK  113  A    between atoms: _272  and  _273
REMARK  114  A    between atoms: _272  and  _275
REMARK  115  A    between atoms: _275  and  _276
REMARK  116  A    between atoms: _276  and  _277
REMARK  117  A    between atoms: _279  and  _281
REMARK  118  A    between atoms: _281  and  _282
REMARK  119  A    between atoms: _284  and  _286
REMARK  120  A    between atoms: _286  and  _287
REMARK  121  A    between atoms: _286  and  _289
REMARK  122  A    between atoms: _289  and  _290
REMARK  123  A    between atoms: _300  and  _302
REMARK  124  A    between atoms: _302  and  _303
REMARK  125  A    between atoms: _302  and  _305
REMARK  126  A    between atoms: _305  and  _306
REMARK  127  A    between atoms: _306  and  _307
REMARK  128  A    between atoms: _307  and  _308
REMARK  129  A    between atoms: _317  and  _319
REMARK  130  A    between atoms: _319  and  _320
REMARK  131  A    between atoms: _319  and  _322
REMARK  132  A    between atoms: _322  and  _323
REMARK  133  A    between atoms: _325  and  _327
REMARK  134  A    between atoms: _327  and  _328
REMARK  135  A    between atoms: _327  and  _330
REMARK  136  A    between atoms: _330  and  _331
REMARK  137  A    between atoms: _334  and  _336
REMARK  138  A    between atoms: _336  and  _337
REMARK  139  A    between atoms: _336  and  _339
REMARK  140  A    between atoms: _339  and  _340
REMARK  141  A    between atoms: _345  and  _346
REMARK  142  A    between atoms: _348  and  _350
REMARK  143  A    between atoms: _350  and  _351
REMARK  144  A    between atoms: _350  and  _353
REMARK  145  A    between atoms: _353  and  _354
REMARK  146  A    between atoms: _360  and  _362
REMARK  147  A    between atoms: _362  and  _363
REMARK  148  A    between atoms: _366  and  _368
REMARK  149  A    between atoms: _368  and  _369
REMARK  150  A    between atoms: _368  and  _371
REMARK  151  A    between atoms: _371  and  _372
REMARK  152  A    between atoms: _375  and  _377
REMARK  153  A    between atoms: _377  and  _378
REMARK  154  A    between atoms: _377  and  _380
REMARK  155  A    between atoms: _380  and  _381
REMARK  156  A    between atoms: _387  and  _389
REMARK  157  A    between atoms: _389  and  _390
REMARK  158  A    between atoms: _389  and  _392
REMARK  159  A    between atoms: _392  and  _393
REMARK  160  A    between atoms: _395  and  _397
REMARK  161  A    between atoms: _397  and  _398
REMARK  162  A    between atoms: _397  and  _400
REMARK  163  A    between atoms: _400  and  _401
REMARK  164  A    between atoms: _401  and  _402
REMARK  165  A    between atoms: _404  and  _406
REMARK  166  A    between atoms: _406  and  _407
REMARK  167  A    between atoms: _406  and  _409
REMARK  168  A    between atoms: _409  and  _410
REMARK  169  A    between atoms: _410  and  _411
REMARK  170  A    between atoms: _416  and  _418
REMARK  171  A    between atoms: _418  and  _419
REMARK  172  A    between atoms: _418  and  _421
REMARK  173  A    between atoms: _423  and  _425
REMARK  174  A    between atoms: _425  and  _426
REMARK  175  A    between atoms: _425  and  _428
REMARK  176  A    between atoms: _428  and  _429
REMARK  177  A    between atoms: _429  and  _430
REMARK  178  A    between atoms: _432  and  _434
REMARK  179  A    between atoms: _434  and  _435
REMARK  180  A    between atoms: _434  and  _437
REMARK  181  A    between atoms: _437  and  _438
REMARK  182  A    between atoms: _441  and  _443
REMARK  183  A    between atoms: _443  and  _444
REMARK  184  A    between atoms: _443  and  _446
REMARK  185  A    between atoms: _449  and  _451
REMARK  186  A    between atoms: _451  and  _452
REMARK  187  A    between atoms: _451  and  _454
REMARK  188  A    between atoms: _454  and  _455
REMARK  189  A    between atoms: _458  and  _460
REMARK  190  A    between atoms: _460  and  _461
REMARK  191  A    between atoms: _464  and  _466
REMARK  192  A    between atoms: _466  and  _467
REMARK  193  A    between atoms: _466  and  _469
REMARK  194  A    between atoms: _469  and  _470
REMARK  195  A    between atoms: _473  and  _475
REMARK  196  A    between atoms: _475  and  _476
REMARK  197  A    between atoms: _475  and  _478
REMARK  198  A    between atoms: _478  and  _479
REMARK  199  A    between atoms: _484  and  _486
REMARK  200  A    between atoms: _486  and  _487
REMARK  201  A    between atoms: _486  and  _489
REMARK  202  A    between atoms: _489  and  _490
REMARK  203  A    between atoms: _490  and  _491
REMARK  204  A    between atoms: _496  and  _498
REMARK  205  A    between atoms: _498  and  _499
REMARK  206  A    between atoms: _498  and  _501
REMARK  207  A    between atoms: _501  and  _502
REMARK  208  A    between atoms: _508  and  _510
REMARK  209  A    between atoms: _510  and  _511
REMARK  210  A    between atoms: _510  and  _513
REMARK  211  A    between atoms: _513  and  _514
REMARK  212  A    between atoms: _517  and  _519
REMARK  213  A    between atoms: _519  and  _520
REMARK  214  A    between atoms: _519  and  _522
REMARK  215  A    between atoms: _522  and  _523
REMARK  216  A    between atoms: _529  and  _531
REMARK  217  A    between atoms: _531  and  _532
REMARK  218  A    between atoms: _531  and  _534
REMARK  219  A    between atoms: _534  and  _535
REMARK  220  A    between atoms: _538  and  _540
REMARK  221  A    between atoms: _540  and  _541
REMARK  222  A    between atoms: _540  and  _543
REMARK  223  A    between atoms: _543  and  _544
REMARK  224  A    between atoms: _547  and  _549
REMARK  225  A    between atoms: _549  and  _550
REMARK  226  A    between atoms: _549  and  _552
REMARK  227  A    between atoms: _552  and  _553
REMARK  228  A    between atoms: _556  and  _558
REMARK  229  A    between atoms: _558  and  _559
REMARK  230  A    between atoms: _558  and  _561
REMARK  231  A    between atoms: _564  and  _566
REMARK  232  A    between atoms: _566  and  _567
REMARK  233  A    between atoms: _566  and  _569
REMARK  234  A    between atoms: _569  and  _570
REMARK  235  A    between atoms: _573  and  _575
REMARK  236  A    between atoms: _575  and  _576
REMARK  237  A    between atoms: _575  and  _578
REMARK  238  A    between atoms: _578  and  _579
REMARK  239  A    between atoms: _586  and  _587
REMARK  240  A    between atoms: _592  and  _594
REMARK  241  A    between atoms: _594  and  _595
REMARK  242  A    between atoms: _594  and  _597
REMARK  243  A    between atoms: _597  and  _598
REMARK  244  A    between atoms: _598  and  _599
REMARK  245  A    between atoms: _601  and  _603
REMARK  246  A    between atoms: _603  and  _604
REMARK  247  A    between atoms: _603  and  _606
REMARK  248  A    between atoms: _606  and  _607
REMARK  249  A    between atoms: _607  and  _608
REMARK  250  A    between atoms: _610  and  _612
REMARK  251  A    between atoms: _612  and  _613
REMARK  252  A    between atoms: _616  and  _618
REMARK  253  A    between atoms: _618  and  _619
REMARK  254  A    between atoms: _618  and  _621
REMARK  255  A    between atoms: _621  and  _622
REMARK  256  A    between atoms: _625  and  _627
REMARK  257  A    between atoms: _627  and  _628
REMARK  258  A    between atoms: _627  and  _630
REMARK  259  A    between atoms: _630  and  _631
REMARK  260  A    between atoms: _634  and  _636
REMARK  261  A    between atoms: _636  and  _637
REMARK  262  A    between atoms: _636  and  _639
REMARK  263  A    between atoms: _639  and  _640
REMARK  264  A    between atoms: _642  and  _644
REMARK  265  A    between atoms: _644  and  _645
REMARK  266  A    between atoms: _644  and  _647
REMARK  267  A    between atoms: _650  and  _652
REMARK  268  A    between atoms: _652  and  _653
REMARK  269  A    between atoms: _652  and  _655
REMARK  270  A    between atoms: _655  and  _656
REMARK  271  A    between atoms: _656  and  _657
REMARK  272  A    between atoms: _662  and  _664
REMARK  273  A    between atoms: _664  and  _665
REMARK  274  A    between atoms: _664  and  _667
REMARK  275  A    between atoms: _671  and  _672
REMARK  276  A    between atoms: _677  and  _679
REMARK  277  A    between atoms: _679  and  _680
REMARK  278  A    between atoms: _679  and  _682
REMARK  279  A    between atoms: _682  and  _683
REMARK  280  A    between atoms: _686  and  _688
REMARK  281  A    between atoms: _688  and  _689
REMARK  282  A    between atoms: _688  and  _691
REMARK  283  A    between atoms: _691  and  _692
REMARK                            x       y       z     vdW  Elec       q    Type
REMARK                         _______ _______ _______ _____ _____    ______ ____
ROOT
ATOM      1  CA  VAL A   1      28.819  15.442   2.525  0.00  0.00    +0.133 C 
ENDROOT
BRANCH   1   2
ATOM      2  CB  VAL A   1      28.799  14.468   3.723  0.00  0.00    +0.023 C 
ATOM      3  CG2 VAL A   1      28.527  15.229   5.011  0.00  0.00    +0.002 C 
ATOM      4  CG1 VAL A   1      30.116  13.735   3.816  0.00  0.00    +0.002 C 
ENDBRANCH   1   2
BRANCH   1   5
ATOM      5  N   VAL A   1      27.571  16.192   2.425  0.00  0.00    -0.239 NA
ATOM      6  H   VAL A   1      26.695  15.683   2.190  0.00  0.00    +0.142 HD
ENDBRANCH   1   5
BRANCH   1   7
ATOM      7  C   VAL A   1      28.980  14.651   1.228  0.00  0.00    +0.224 C 
ATOM      8  O   VAL A   1      28.103  13.882   0.851  0.00  0.00    -0.287 OA
ENDBRANCH   1   7
TORSDOF 3
REMARK  Name = ../refined-set-2016/3b5r/3b5r_pocket.pdb
REMARK  283 active torsions:
REMARK  status: ('A' for Active; 'I' for Inactive)
REMARK    1  A    between atoms: _1  and  _3
REMARK    2  A    between atoms: _3  and  _4
REMARK    3  A    between atoms: _3  and  _6
REMARK    4  A    between atoms: _9  and  _11
REMARK    5  A    between atoms: _11  and  _12
REMARK    6  A    between atoms: _15  and  _17
REMARK    7  A    between atoms: _17  and  _18
REMARK    8  A    between atoms: _17  and  _20
REMARK    9  A    between atoms: _20  and  _21
REMARK   10  A    between atoms: _27  and  _29
REMARK   11  A    between atoms: _29  and  _30
REMARK   12  A    between atoms: _29  and  _32
REMARK   13  A    between atoms: _32  and  _33
REMARK   14  A    between atoms: _36  and  _38
REMARK   15  A    between atoms: _38  and  _39
REMARK   16  A    between atoms: _38  and  _41
REMARK   17  A    between atoms: _41  and  _42
REMARK   18  A    between atoms: _45  and  _47
REMARK   19  A    between atoms: _47  and  _48
REMARK   20  A    between atoms: _47  and  _50
REMARK   21  A    between atoms: _50  and  _51
REMARK   22  A    between atoms: _53  and  _55
REMARK   23  A    between atoms: _55  and  _56
REMARK   24  A    between atoms: _55  and  _58
REMARK   25  A    between atoms: _58  and  _59
REMARK   26  A    between atoms: _61  and  _63
REMARK   27  A    between atoms: _63  and  _64
REMARK   28  A    between atoms: _63  and  _66
REMARK   29  A    between atoms: _66  and  _67
REMARK   30  A    between atoms: _70  and  _72
REMARK   31  A    between atoms: _72  and  _73
REMARK   32  A    between atoms: _72  and  _75
REMARK   33  A    between atoms: _75  and  _76
REMARK   34  A    between atoms: _81  and  _83
REMARK   35  A    between atoms: _83  and  _84
REMARK   36  A    between atoms: _83  and  _86
REMARK   37  A    between atoms: _86  and  _87
REMARK   38  A    between atoms: _87  and  _88
REMARK   39  A    between atoms: _91  and  _93
REMARK   40  A    between atoms: _93  and  _94
REMARK   41  A    between atoms: _93  and  _96
REMARK   42  A    between atoms: _96  and  _97
REMARK   43  A    between atoms: _100  and  _102
REMARK   44  A    between atoms: _102  and  _103
REMARK   45  A    between atoms: _105  and  _107
REMARK   46  A    between atoms: _107  and  _108
REMARK   47  A    between atoms: _107  and  _110
REMARK   48  A    between atoms: _110  and  _111
REMARK   49  A    between atoms: _111  and  _112
REMARK   50  A    between atoms: _115  and  _117
REMARK   51  A    between atoms: _117  and  _118
REMARK   52  A    between atoms: _117  and  _120
REMARK   53  A    between atoms: _120  and  _121
REMARK   54  A    between atoms: _121  and  _122
REMARK   55  A    between atoms: _122  and  _123
REMARK   56  A    between atoms: _132  and  _134
REMARK   57  A    between atoms: _134  and  _135
REMARK   58  A    between atoms: _134  and  _137
REMARK   59  A    between atoms: _137  and  _138
REMARK   60  A    between atoms: _138  and  _139
REMARK   61  A    between atoms: _144  and  _146
REMARK   62  A    between atoms: _146  and  _147
REMARK   63  A    between atoms: _146  and  _149
REMARK   64  A    between atoms: _149  and  _150
REMARK   65  A    between atoms: _153  and  _155
REMARK   66  A    between atoms: _155  and  _156
REMARK   67  A    between atoms: _155  and  _158
REMARK   68  A    between atoms: _158  and  _159
REMARK   69  A    between atoms: _162  and  _164
REMARK   70  A    between atoms: _164  and  _165
REMARK   71  A    between atoms: _164  and  _167
REMARK   72  A    between atoms: _167  and  _168
REMARK   73  A    between atoms: _168  and  _169
REMARK   74  A    between atoms: _174  and  _176
REMARK   75  A    between atoms: _176  and  _177
REMARK   76  A    between atoms: _176  and  _179
REMARK   77  A    between atoms: _179  and  _180
REMARK   78  A    between atoms: _185  and  _186
REMARK   79  A    between atoms: _188  and  _190
REMARK   80  A    between atoms: _190  and  _191
REMARK   81  A    between atoms: _190  and  _193
REMARK   82  A    between atoms: _193  and  _194
REMARK   83  A    between atoms: _196  and  _198
REMARK   84  A    between atoms: _198  and  _199
REMARK   85  A    between atoms: _198  and  _201
REMARK   86  A    between atoms: _201  and  _202
REMARK   87  A    between atoms: _212  and  _214
REMARK   88  A    between atoms: _214  and  _215
REMARK   89  A    between atoms: _214  and  _217
REMARK   90  A    between atoms: _217  and  _218
REMARK   91  A    between atoms: _218  and  _219
REMARK   92  A    between atoms: _221  and  _223
REMARK   93  A    between atoms: _223  and  _224
REMARK   94  A    between atoms: _226  and  _228
REMARK   95  A    between atoms: _228  and  _229
REMARK   96  A    between atoms: _228  and  _231
REMARK   97  A    between atoms: _231  and  _232
REMARK   98  A    between atoms: _235  and  _237
REMARK   99  A    between atoms: _237  and  _238
REMARK  100  A    between atoms: _237  and  _240
REMARK  101  A    between atoms: _240  and  _241
REMARK  102  A    between atoms: _241  and  _242
REMARK  103  A    between atoms: _244  and  _246
REMARK  104  A    between atoms: _246  and  _247
REMARK  105  A    between atoms: _246  and  _249
REMARK  106  A    between atoms: _252  and  _254
REMARK  107  A    between atoms: _254  and  _255
REMARK  108  A    between atoms: _254  and  _257
REMARK  109  A    between atoms: _257  and  _258
REMARK  110  A    between atoms: _264  and  _266
REMARK  111  A    between atoms: _266  and  _267
REMARK  112  A    between atoms: _270  and  _272
REMARK  113  A    between atoms: _272  and  _273
REMARK  114  A    between atoms: _272  and  _275
REMARK  115  A    between atoms: _275  and  _276
REMARK  116  A    between atoms: _276  and  _277
REMARK  117  A    between atoms: _279  and  _281
REMARK  118  A    between atoms: _281  and  _282
REMARK  119  A    between atoms: _284  and  _286
REMARK  120  A    between atoms: _286  and  _287
REMARK  121  A    between atoms: _286  and  _289
REMARK  122  A    between atoms: _289  and  _290
REMARK  123  A    between atoms: _300  and  _302
REMARK  124  A    between atoms: _302  and  _303
REMARK  125  A    between atoms: _302  and  _305
REMARK  126  A    between atoms: _305  and  _306
REMARK  127  A    between atoms: _306  and  _307
REMARK  128  A    between atoms: _307  and  _308
REMARK  129  A    between atoms: _317  and  _319
REMARK  130  A    between atoms: _319  and  _320
REMARK  131  A    between atoms: _319  and  _322
REMARK  132  A    between atoms: _322  and  _323
REMARK  133  A    between atoms: _325  and  _327
REMARK  134  A    between atoms: _327  and  _328
REMARK  135  A    between atoms: _327  and  _330
REMARK  136  A    between atoms: _330  and  _331
REMARK  137  A    between atoms: _334  and  _336
REMARK  138  A    between atoms: _336  and  _337
REMARK  139  A    between atoms: _336  and  _339
REMARK  140  A    between atoms: _339  and  _340
REMARK  141  A    between atoms: _345  and  _346
REMARK  142  A    between atoms: _348  and  _350
REMARK  143  A    between atoms: _350  and  _351
REMARK  144  A    between atoms: _350  and  _353
REMARK  145  A    between atoms: _353  and  _354
REMARK  146  A    between atoms: _360  and  _362
REMARK  147  A    between atoms: _362  and  _363
REMARK  148  A    between atoms: _366  and  _368
REMARK  149  A    between atoms: _368  and  _369
REMARK  150  A    between atoms: _368  and  _371
REMARK  151  A    between atoms: _371  and  _372
REMARK  152  A    between atoms: _375  and  _377
REMARK  153  A    between atoms: _377  and  _378
REMARK  154  A    between atoms: _377  and  _380
REMARK  155  A    between atoms: _380  and  _381
REMARK  156  A    between atoms: _387  and  _389
REMARK  157  A    between atoms: _389  and  _390
REMARK  158  A    between atoms: _389  and  _392
REMARK  159  A    between atoms: _392  and  _393
REMARK  160  A    between atoms: _395  and  _397
REMARK  161  A    between atoms: _397  and  _398
REMARK  162  A    between atoms: _397  and  _400
REMARK  163  A    between atoms: _400  and  _401
REMARK  164  A    between atoms: _401  and  _402
REMARK  165  A    between atoms: _404  and  _406
REMARK  166  A    between atoms: _406  and  _407
REMARK  167  A    between atoms: _406  and  _409
REMARK  168  A    between atoms: _409  and  _410
REMARK  169  A    between atoms: _410  and  _411
REMARK  170  A    between atoms: _416  and  _418
REMARK  171  A    between atoms: _418  and  _419
REMARK  172  A    between atoms: _418  and  _421
REMARK  173  A    between atoms: _423  and  _425
REMARK  174  A    between atoms: _425  and  _426
REMARK  175  A    between atoms: _425  and  _428
REMARK  176  A    between atoms: _428  and  _429
REMARK  177  A    between atoms: _429  and  _430
REMARK  178  A    between atoms: _432  and  _434
REMARK  179  A    between atoms: _434  and  _435
REMARK  180  A    between atoms: _434  and  _437
REMARK  181  A    between atoms: _437  and  _438
REMARK  182  A    between atoms: _441  and  _443
REMARK  183  A    between atoms: _443  and  _444
REMARK  184  A    between atoms: _443  and  _446
REMARK  185  A    between atoms: _449  and  _451
REMARK  186  A    between atoms: _451  and  _452
REMARK  187  A    between atoms: _451  and  _454
REMARK  188  A    between atoms: _454  and  _455
REMARK  189  A    between atoms: _458  and  _460
REMARK  190  A    between atoms: _460  and  _461
REMARK  191  A    between atoms: _464  and  _466
REMARK  192  A    between atoms: _466  and  _467
REMARK  193  A    between atoms: _466  and  _469
REMARK  194  A    between atoms: _469  and  _470
REMARK  195  A    between atoms: _473  and  _475
REMARK  196  A    between atoms: _475  and  _476
REMARK  197  A    between atoms: _475  and  _478
REMARK  198  A    between atoms: _478  and  _479
REMARK  199  A    between atoms: _484  and  _486
REMARK  200  A    between atoms: _486  and  _487
REMARK  201  A    between atoms: _486  and  _489
REMARK  202  A    between atoms: _489  and  _490
REMARK  203  A    between atoms: _490  and  _491
REMARK  204  A    between atoms: _496  and  _498
REMARK  205  A    between atoms: _498  and  _499
REMARK  206  A    between atoms: _498  and  _501
REMARK  207  A    between atoms: _501  and  _502
REMARK  208  A    between atoms: _508  and  _510
REMARK  209  A    between atoms: _510  and  _511
REMARK  210  A    between atoms: _510  and  _513
REMARK  211  A    between atoms: _513  and  _514
REMARK  212  A    between atoms: _517  and  _519
REMARK  213  A    between atoms: _519  and  _520
REMARK  214  A    between atoms: _519  and  _522
REMARK  215  A    between atoms: _522  and  _523
REMARK  216  A    between atoms: _529  and  _531
REMARK  217  A    between atoms: _531  and  _532
REMARK  218  A    between atoms: _531  and  _534
REMARK  219  A    between atoms: _534  and  _535
REMARK  220  A    between atoms: _538  and  _540
REMARK  221  A    between atoms: _540  and  _541
REMARK  222  A    between atoms: _540  and  _543
REMARK  223  A    between atoms: _543  and  _544
REMARK  224  A    between atoms: _547  and  _549
REMARK  225  A    between atoms: _549  and  _550
REMARK  226  A    between atoms: _549  and  _552
REMARK  227  A    between atoms: _552  and  _553
REMARK  228  A    between atoms: _556  and  _558
REMARK  229  A    between atoms: _558  and  _559
REMARK  230  A    between atoms: _558  and  _561
REMARK  231  A    between atoms: _564  and  _566
REMARK  232  A    between atoms: _566  and  _567
REMARK  233  A    between atoms: _566  and  _569
REMARK  234  A    between atoms: _569  and  _570
REMARK  235  A    between atoms: _573  and  _575
REMARK  236  A    between atoms: _575  and  _576
REMARK  237  A    between atoms: _575  and  _578
REMARK  238  A    between atoms: _578  and  _579
REMARK  239  A    between atoms: _586  and  _587
REMARK  240  A    between atoms: _592  and  _594
REMARK  241  A    between atoms: _594  and  _595
REMARK  242  A    between atoms: _594  and  _597
REMARK  243  A    between atoms: _597  and  _598
REMARK  244  A    between atoms: _598  and  _599
REMARK  245  A    between atoms: _601  and  _603
REMARK  246  A    between atoms: _603  and  _604
REMARK  247  A    between atoms: _603  and  _606
REMARK  248  A    between atoms: _606  and  _607
REMARK  249  A    between atoms: _607  and  _608
REMARK  250  A    between atoms: _610  and  _612
REMARK  251  A    between atoms: _612  and  _613
REMARK  252  A    between atoms: _616  and  _618
REMARK  253  A    between atoms: _618  and  _619
REMARK  254  A    between atoms: _618  and  _621
REMARK  255  A    between atoms: _621  and  _622
REMARK  256  A    between atoms: _625  and  _627
REMARK  257  A    between atoms: _627  and  _628
REMARK  258  A    between atoms: _627  and  _630
REMARK  259  A    between atoms: _630  and  _631
REMARK  260  A    between atoms: _634  and  _636
REMARK  261  A    between atoms: _636  and  _637
REMARK  262  A    between atoms: _636  and  _639
REMARK  263  A    between atoms: _639  and  _640
REMARK  264  A    between atoms: _642  and  _644
REMARK  265  A    between atoms: _644  and  _645
REMARK  266  A    between atoms: _644  and  _647
REMARK  267  A    between atoms: _650  and  _652
REMARK  268  A    between atoms: _652  and  _653
REMARK  269  A    between atoms: _652  and  _655
REMARK  270  A    between atoms: _655  and  _656
REMARK  271  A    between atoms: _656  and  _657
REMARK  272  A    between atoms: _662  and  _664
REMARK  273  A    between atoms: _664  and  _665
REMARK  274  A    between atoms: _664  and  _667
REMARK  275  A    between atoms: _671  and  _672
REMARK  276  A    between atoms: _677  and  _679
REMARK  277  A    between atoms: _679  and  _680
REMARK  278  A    between atoms: _679  and  _682
REMARK  279  A    between atoms: _682  and  _683
REMARK  280  A    between atoms: _686  and  _688
REMARK  281  A    between atoms: _688  and  _689
REMARK  282  A    between atoms: _688  and  _691
REMARK  283  A    between atoms: _691  and  _692
REMARK                            x       y       z     vdW  Elec       q    Type
REMARK                         _______ _______ _______ _____ _____    ______ ____
ROOT
ATOM      1  CA  ALA A   1      32.025  10.804  -1.274  0.00  0.00    +0.133 C 
ATOM      2  CB  ALA A   1      31.256   9.621  -1.861  0.00  0.00    +0.027 C 
ENDROOT
BRANCH   1   3
ATOM      3  N   ALA A   1      31.223  12.012  -1.389  0.00  0.00    -0.239 NA
ATOM      4  H   ALA A   1      30.592  12.121  -2.208  0.00  0.00    +0.142 HD
ENDBRANCH   1   3
BRANCH   1   5
ATOM      5  C   ALA A   1      33.396  10.910  -1.939  0.00  0.00    +0.224 C 
ATOM      6  O   ALA A   1      34.343  10.246  -1.519  0.00  0.00    -0.287 OA
ENDBRANCH   1   5
TORSDOF 2
REMARK  Name = ../refined-set-2016/3b5r/3b5r_pocket.pdb
REMARK  283 active torsions:
REMARK  status: ('A' for Active; 'I' for Inactive)
REMARK    1  A    between atoms: _1  and  _3
REMARK    2  A    between atoms: _3  and  _4
REMARK    3  A    between atoms: _3  and  _6
REMARK    4  A    between atoms: _9  and  _11
REMARK    5  A    between atoms: _11  and  _12
REMARK    6  A    between atoms: _15  and  _17
REMARK    7  A    between atoms: _17  and  _18
REMARK    8  A    between atoms: _17  and  _20
REMARK    9  A    between atoms: _20  and  _21
REMARK   10  A    between atoms: _27  and  _29
REMARK   11  A    between atoms: _29  and  _30
REMARK   12  A    between atoms: _29  and  _32
REMARK   13  A    between atoms: _32  and  _33
REMARK   14  A    between atoms: _36  and  _38
REMARK   15  A    between atoms: _38  and  _39
REMARK   16  A    between atoms: _38  and  _41
REMARK   17  A    between atoms: _41  and  _42
REMARK   18  A    between atoms: _45  and  _47
REMARK   19  A    between atoms: _47  and  _48
REMARK   20  A    between atoms: _47  and  _50
REMARK   21  A    between atoms: _50  and  _51
REMARK   22  A    between atoms: _53  and  _55
REMARK   23  A    between atoms: _55  and  _56
REMARK   24  A    between atoms: _55  and  _58
REMARK   25  A    between atoms: _58  and  _59
REMARK   26  A    between atoms: _61  and  _63
REMARK   27  A    between atoms: _63  and  _64
REMARK   28  A    between atoms: _63  and  _66
REMARK   29  A    between atoms: _66  and  _67
REMARK   30  A    between atoms: _70  and  _72
REMARK   31  A    between atoms: _72  and  _73
REMARK   32  A    between atoms: _72  and  _75
REMARK   33  A    between atoms: _75  and  _76
REMARK   34  A    between atoms: _81  and  _83
REMARK   35  A    between atoms: _83  and  _84
REMARK   36  A    between atoms: _83  and  _86
REMARK   37  A    between atoms: _86  and  _87
REMARK   38  A    between atoms: _87  and  _88
REMARK   39  A    between atoms: _91  and  _93
REMARK   40  A    between atoms: _93  and  _94
REMARK   41  A    between atoms: _93  and  _96
REMARK   42  A    between atoms: _96  and  _97
REMARK   43  A    between atoms: _100  and  _102
REMARK   44  A    between atoms: _102  and  _103
REMARK   45  A    between atoms: _105  and  _107
REMARK   46  A    between atoms: _107  and  _108
REMARK   47  A    between atoms: _107  and  _110
REMARK   48  A    between atoms: _110  and  _111
REMARK   49  A    between atoms: _111  and  _112
REMARK   50  A    between atoms: _115  and  _117
REMARK   51  A    between atoms: _117  and  _118
REMARK   52  A    between atoms: _117  and  _120
REMARK   53  A    between atoms: _120  and  _121
REMARK   54  A    between atoms: _121  and  _122
REMARK   55  A    between atoms: _122  and  _123
REMARK   56  A    between atoms: _132  and  _134
REMARK   57  A    between atoms: _134  and  _135
REMARK   58  A    between atoms: _134  and  _137
REMARK   59  A    between atoms: _137  and  _138
REMARK   60  A    between atoms: _138  and  _139
REMARK   61  A    between atoms: _144  and  _146
REMARK   62  A    between atoms: _146  and  _147
REMARK   63  A    between atoms: _146  and  _149
REMARK   64  A    between atoms: _149  and  _150
REMARK   65  A    between atoms: _153  and  _155
REMARK   66  A    between atoms: _155  and  _156
REMARK   67  A    between atoms: _155  and  _158
REMARK   68  A    between atoms: _158  and  _159
REMARK   69  A    between atoms: _162  and  _164
REMARK   70  A    between atoms: _164  and  _165
REMARK   71  A    between atoms: _164  and  _167
REMARK   72  A    between atoms: _167  and  _168
REMARK   73  A    between atoms: _168  and  _169
REMARK   74  A    between atoms: _174  and  _176
REMARK   75  A    between atoms: _176  and  _177
REMARK   76  A    between atoms: _176  and  _179
REMARK   77  A    between atoms: _179  and  _180
REMARK   78  A    between atoms: _185  and  _186
REMARK   79  A    between atoms: _188  and  _190
REMARK   80  A    between atoms: _190  and  _191
REMARK   81  A    between atoms: _190  and  _193
REMARK   82  A    between atoms: _193  and  _194
REMARK   83  A    between atoms: _196  and  _198
REMARK   84  A    between atoms: _198  and  _199
REMARK   85  A    between atoms: _198  and  _201
REMARK   86  A    between atoms: _201  and  _202
REMARK   87  A    between atoms: _212  and  _214
REMARK   88  A    between atoms: _214  and  _215
REMARK   89  A    between atoms: _214  and  _217
REMARK   90  A    between atoms: _217  and  _218
REMARK   91  A    between atoms: _218  and  _219
REMARK   92  A    between atoms: _221  and  _223
REMARK   93  A    between atoms: _223  and  _224
REMARK   94  A    between atoms: _226  and  _228
REMARK   95  A    between atoms: _228  and  _229
REMARK   96  A    between atoms: _228  and  _231
REMARK   97  A    between atoms: _231  and  _232
REMARK   98  A    between atoms: _235  and  _237
REMARK   99  A    between atoms: _237  and  _238
REMARK  100  A    between atoms: _237  and  _240
REMARK  101  A    between atoms: _240  and  _241
REMARK  102  A    between atoms: _241  and  _242
REMARK  103  A    between atoms: _244  and  _246
REMARK  104  A    between atoms: _246  and  _247
REMARK  105  A    between atoms: _246  and  _249
REMARK  106  A    between atoms: _252  and  _254
REMARK  107  A    between atoms: _254  and  _255
REMARK  108  A    between atoms: _254  and  _257
REMARK  109  A    between atoms: _257  and  _258
REMARK  110  A    between atoms: _264  and  _266
REMARK  111  A    between atoms: _266  and  _267
REMARK  112  A    between atoms: _270  and  _272
REMARK  113  A    between atoms: _272  and  _273
REMARK  114  A    between atoms: _272  and  _275
REMARK  115  A    between atoms: _275  and  _276
REMARK  116  A    between atoms: _276  and  _277
REMARK  117  A    between atoms: _279  and  _281
REMARK  118  A    between atoms: _281  and  _282
REMARK  119  A    between atoms: _284  and  _286
REMARK  120  A    between atoms: _286  and  _287
REMARK  121  A    between atoms: _286  and  _289
REMARK  122  A    between atoms: _289  and  _290
REMARK  123  A    between atoms: _300  and  _302
REMARK  124  A    between atoms: _302  and  _303
REMARK  125  A    between atoms: _302  and  _305
REMARK  126  A    between atoms: _305  and  _306
REMARK  127  A    between atoms: _306  and  _307
REMARK  128  A    between atoms: _307  and  _308
REMARK  129  A    between atoms: _317  and  _319
REMARK  130  A    between atoms: _319  and  _320
REMARK  131  A    between atoms: _319  and  _322
REMARK  132  A    between atoms: _322  and  _323
REMARK  133  A    between atoms: _325  and  _327
REMARK  134  A    between atoms: _327  and  _328
REMARK  135  A    between atoms: _327  and  _330
REMARK  136  A    between atoms: _330  and  _331
REMARK  137  A    between atoms: _334  and  _336
REMARK  138  A    between atoms: _336  and  _337
REMARK  139  A    between atoms: _336  and  _339
REMARK  140  A    between atoms: _339  and  _340
REMARK  141  A    between atoms: _345  and  _346
REMARK  142  A    between atoms: _348  and  _350
REMARK  143  A    between atoms: _350  and  _351
REMARK  144  A    between atoms: _350  and  _353
REMARK  145  A    between atoms: _353  and  _354
REMARK  146  A    between atoms: _360  and  _362
REMARK  147  A    between atoms: _362  and  _363
REMARK  148  A    between atoms: _366  and  _368
REMARK  149  A    between atoms: _368  and  _369
REMARK  150  A    between atoms: _368  and  _371
REMARK  151  A    between atoms: _371  and  _372
REMARK  152  A    between atoms: _375  and  _377
REMARK  153  A    between atoms: _377  and  _378
REMARK  154  A    between atoms: _377  and  _380
REMARK  155  A    between atoms: _380  and  _381
REMARK  156  A    between atoms: _387  and  _389
REMARK  157  A    between atoms: _389  and  _390
REMARK  158  A    between atoms: _389  and  _392
REMARK  159  A    between atoms: _392  and  _393
REMARK  160  A    between atoms: _395  and  _397
REMARK  161  A    between atoms: _397  and  _398
REMARK  162  A    between atoms: _397  and  _400
REMARK  163  A    between atoms: _400  and  _401
REMARK  164  A    between atoms: _401  and  _402
REMARK  165  A    between atoms: _404  and  _406
REMARK  166  A    between atoms: _406  and  _407
REMARK  167  A    between atoms: _406  and  _409
REMARK  168  A    between atoms: _409  and  _410
REMARK  169  A    between atoms: _410  and  _411
REMARK  170  A    between atoms: _416  and  _418
REMARK  171  A    between atoms: _418  and  _419
REMARK  172  A    between atoms: _418  and  _421
REMARK  173  A    between atoms: _423  and  _425
REMARK  174  A    between atoms: _425  and  _426
REMARK  175  A    between atoms: _425  and  _428
REMARK  176  A    between atoms: _428  and  _429
REMARK  177  A    between atoms: _429  and  _430
REMARK  178  A    between atoms: _432  and  _434
REMARK  179  A    between atoms: _434  and  _435
REMARK  180  A    between atoms: _434  and  _437
REMARK  181  A    between atoms: _437  and  _438
REMARK  182  A    between atoms: _441  and  _443
REMARK  183  A    between atoms: _443  and  _444
REMARK  184  A    between atoms: _443  and  _446
REMARK  185  A    between atoms: _449  and  _451
REMARK  186  A    between atoms: _451  and  _452
REMARK  187  A    between atoms: _451  and  _454
REMARK  188  A    between atoms: _454  and  _455
REMARK  189  A    between atoms: _458  and  _460
REMARK  190  A    between atoms: _460  and  _461
REMARK  191  A    between atoms: _464  and  _466
REMARK  192  A    between atoms: _466  and  _467
REMARK  193  A    between atoms: _466  and  _469
REMARK  194  A    between atoms: _469  and  _470
REMARK  195  A    between atoms: _473  and  _475
REMARK  196  A    between atoms: _475  and  _476
REMARK  197  A    between atoms: _475  and  _478
REMARK  198  A    between atoms: _478  and  _479
REMARK  199  A    between atoms: _484  and  _486
REMARK  200  A    between atoms: _486  and  _487
REMARK  201  A    between atoms: _486  and  _489
REMARK  202  A    between atoms: _489  and  _490
REMARK  203  A    between atoms: _490  and  _491
REMARK  204  A    between atoms: _496  and  _498
REMARK  205  A    between atoms: _498  and  _499
REMARK  206  A    between atoms: _498  and  _501
REMARK  207  A    between atoms: _501  and  _502
REMARK  208  A    between atoms: _508  and  _510
REMARK  209  A    between atoms: _510  and  _511
REMARK  210  A    between atoms: _510  and  _513
REMARK  211  A    between atoms: _513  and  _514
REMARK  212  A    between atoms: _517  and  _519
REMARK  213  A    between atoms: _519  and  _520
REMARK  214  A    between atoms: _519  and  _522
REMARK  215  A    between atoms: _522  and  _523
REMARK  216  A    between atoms: _529  and  _531
REMARK  217  A    between atoms: _531  and  _532
REMARK  218  A    between atoms: _531  and  _534
REMARK  219  A    between atoms: _534  and  _535
REMARK  220  A    between atoms: _538  and  _540
REMARK  221  A    between atoms: _540  and  _541
REMARK  222  A    between atoms: _540  and  _543
REMARK  223  A    between atoms: _543  and  _544
REMARK  224  A    between atoms: _547  and  _549
REMARK  225  A    between atoms: _549  and  _550
REMARK  226  A    between atoms: _549  and  _552
REMARK  227  A    between atoms: _552  and  _553
REMARK  228  A    between atoms: _556  and  _558
REMARK  229  A    between atoms: _558  and  _559
REMARK  230  A    between atoms: _558  and  _561
REMARK  231  A    between atoms: _564  and  _566
REMARK  232  A    between atoms: _566  and  _567
REMARK  233  A    between atoms: _566  and  _569
REMARK  234  A    between atoms: _569  and  _570
REMARK  235  A    between atoms: _573  and  _575
REMARK  236  A    between atoms: _575  and  _576
REMARK  237  A    between atoms: _575  and  _578
REMARK  238  A    between atoms: _578  and  _579
REMARK  239  A    between atoms: _586  and  _587
REMARK  240  A    between atoms: _592  and  _594
REMARK  241  A    between atoms: _594  and  _595
REMARK  242  A    between atoms: _594  and  _597
REMARK  243  A    between atoms: _597  and  _598
REMARK  244  A    between atoms: _598  and  _599
REMARK  245  A    between atoms: _601  and  _603
REMARK  246  A    between atoms: _603  and  _604
REMARK  247  A    between atoms: _603  and  _606
REMARK  248  A    between atoms: _606  and  _607
REMARK  249  A    between atoms: _607  and  _608
REMARK  250  A    between atoms: _610  and  _612
REMARK  251  A    between atoms: _612  and  _613
REMARK  252  A    between atoms: _616  and  _618
REMARK  253  A    between atoms: _618  and  _619
REMARK  254  A    between atoms: _618  and  _621
REMARK  255  A    between atoms: _621  and  _622
REMARK  256  A    between atoms: _625  and  _627
REMARK  257  A    between atoms: _627  and  _628
REMARK  258  A    between atoms: _627  and  _630
REMARK  259  A    between atoms: _630  and  _631
REMARK  260  A    between atoms: _634  and  _636
REMARK  261  A    between atoms: _636  and  _637
REMARK  262  A    between atoms: _636  and  _639
REMARK  263  A    between atoms: _639  and  _640
REMARK  264  A    between atoms: _642  and  _644
REMARK  265  A    between atoms: _644  and  _645
REMARK  266  A    between atoms: _644  and  _647
REMARK  267  A    between atoms: _650  and  _652
REMARK  268  A    between atoms: _652  and  _653
REMARK  269  A    between atoms: _652  and  _655
REMARK  270  A    between atoms: _655  and  _656
REMARK  271  A    between atoms: _656  and  _657
REMARK  272  A    between atoms: _662  and  _664
REMARK  273  A    between atoms: _664  and  _665
REMARK  274  A    between atoms: _664  and  _667
REMARK  275  A    between atoms: _671  and  _672
REMARK  276  A    between atoms: _677  and  _679
REMARK  277  A    between atoms: _679  and  _680
REMARK  278  A    between atoms: _679  and  _682
REMARK  279  A    between atoms: _682  and  _683
REMARK  280  A    between atoms: _686  and  _688
REMARK  281  A    between atoms: _688  and  _689
REMARK  282  A    between atoms: _688  and  _691
REMARK  283  A    between atoms: _691  and  _692
REMARK                            x       y       z     vdW  Elec       q    Type
REMARK                         _______ _______ _______ _____ _____    ______ ____
ROOT
ATOM      1  CB  PHE A   1      32.328  -4.786  -7.064  0.00  0.00    +0.051 C 
ENDROOT
BRANCH   1   2
ATOM      2  CG  PHE A   1      32.249  -5.196  -5.627  0.00  0.00    -0.020 A 
ATOM      3  CD2 PHE A   1      31.073  -5.025  -4.905  0.00  0.00    -0.004 A 
ATOM      4  CE2 PHE A   1      31.007  -5.372  -3.553  0.00  0.00    -0.000 A 
ATOM      5  CZ  PHE A   1      32.131  -5.896  -2.919  0.00  0.00    -0.000 A 
ATOM      6  CE1 PHE A   1      33.312  -6.073  -3.636  0.00  0.00    -0.000 A 
ATOM      7  CD1 PHE A   1      33.363  -5.723  -4.982  0.00  0.00    -0.004 A 
ENDBRANCH   1   2
BRANCH   1   8
ATOM      8  CA  PHE A   1      32.295  -3.272  -7.273  0.00  0.00    +0.137 C 
BRANCH   8   9
ATOM      9  N   PHE A   1      32.526  -2.961  -8.670  0.00  0.00    -0.239 NA
ATOM     10  H   PHE A   1      32.736  -3.732  -9.336  0.00  0.00    +0.142 HD
ENDBRANCH   8   9
BRANCH   8  11
ATOM     11  C   PHE A   1      33.334  -2.601  -6.379  0.00  0.00    +0.224 C 
ATOM     12  O   PHE A   1      32.988  -1.869  -5.452  0.00  0.00    -0.287 OA
ENDBRANCH   8  11
ENDBRANCH   1   8
TORSDOF 4
REMARK  Name = ../refined-set-2016/3b5r/3b5r_pocket.pdb
REMARK  283 active torsions:
REMARK  status: ('A' for Active; 'I' for Inactive)
REMARK    1  A    between atoms: _1  and  _3
REMARK    2  A    between atoms: _3  and  _4
REMARK    3  A    between atoms: _3  and  _6
REMARK    4  A    between atoms: _9  and  _11
REMARK    5  A    between atoms: _11  and  _12
REMARK    6  A    between atoms: _15  and  _17
REMARK    7  A    between atoms: _17  and  _18
REMARK    8  A    between atoms: _17  and  _20
REMARK    9  A    between atoms: _20  and  _21
REMARK   10  A    between atoms: _27  and  _29
REMARK   11  A    between atoms: _29  and  _30
REMARK   12  A    between atoms: _29  and  _32
REMARK   13  A    between atoms: _32  and  _33
REMARK   14  A    between atoms: _36  and  _38
REMARK   15  A    between atoms: _38  and  _39
REMARK   16  A    between atoms: _38  and  _41
REMARK   17  A    between atoms: _41  and  _42
REMARK   18  A    between atoms: _45  and  _47
REMARK   19  A    between atoms: _47  and  _48
REMARK   20  A    between atoms: _47  and  _50
REMARK   21  A    between atoms: _50  and  _51
REMARK   22  A    between atoms: _53  and  _55
REMARK   23  A    between atoms: _55  and  _56
REMARK   24  A    between atoms: _55  and  _58
REMARK   25  A    between atoms: _58  and  _59
REMARK   26  A    between atoms: _61  and  _63
REMARK   27  A    between atoms: _63  and  _64
REMARK   28  A    between atoms: _63  and  _66
REMARK   29  A    between atoms: _66  and  _67
REMARK   30  A    between atoms: _70  and  _72
REMARK   31  A    between atoms: _72  and  _73
REMARK   32  A    between atoms: _72  and  _75
REMARK   33  A    between atoms: _75  and  _76
REMARK   34  A    between atoms: _81  and  _83
REMARK   35  A    between atoms: _83  and  _84
REMARK   36  A    between atoms: _83  and  _86
REMARK   37  A    between atoms: _86  and  _87
REMARK   38  A    between atoms: _87  and  _88
REMARK   39  A    between atoms: _91  and  _93
REMARK   40  A    between atoms: _93  and  _94
REMARK   41  A    between atoms: _93  and  _96
REMARK   42  A    between atoms: _96  and  _97
REMARK   43  A    between atoms: _100  and  _102
REMARK   44  A    between atoms: _102  and  _103
REMARK   45  A    between atoms: _105  and  _107
REMARK   46  A    between atoms: _107  and  _108
REMARK   47  A    between atoms: _107  and  _110
REMARK   48  A    between atoms: _110  and  _111
REMARK   49  A    between atoms: _111  and  _112
REMARK   50  A    between atoms: _115  and  _117
REMARK   51  A    between atoms: _117  and  _118
REMARK   52  A    between atoms: _117  and  _120
REMARK   53  A    between atoms: _120  and  _121
REMARK   54  A    between atoms: _121  and  _122
REMARK   55  A    between atoms: _122  and  _123
REMARK   56  A    between atoms: _132  and  _134
REMARK   57  A    between atoms: _134  and  _135
REMARK   58  A    between atoms: _134  and  _137
REMARK   59  A    between atoms: _137  and  _138
REMARK   60  A    between atoms: _138  and  _139
REMARK   61  A    between atoms: _144  and  _146
REMARK   62  A    between atoms: _146  and  _147
REMARK   63  A    between atoms: _146  and  _149
REMARK   64  A    between atoms: _149  and  _150
REMARK   65  A    between atoms: _153  and  _155
REMARK   66  A    between atoms: _155  and  _156
REMARK   67  A    between atoms: _155  and  _158
REMARK   68  A    between atoms: _158  and  _159
REMARK   69  A    between atoms: _162  and  _164
REMARK   70  A    between atoms: _164  and  _165
REMARK   71  A    between atoms: _164  and  _167
REMARK   72  A    between atoms: _167  and  _168
REMARK   73  A    between atoms: _168  and  _169
REMARK   74  A    between atoms: _174  and  _176
REMARK   75  A    between atoms: _176  and  _177
REMARK   76  A    between atoms: _176  and  _179
REMARK   77  A    between atoms: _179  and  _180
REMARK   78  A    between atoms: _185  and  _186
REMARK   79  A    between atoms: _188  and  _190
REMARK   80  A    between atoms: _190  and  _191
REMARK   81  A    between atoms: _190  and  _193
REMARK   82  A    between atoms: _193  and  _194
REMARK   83  A    between atoms: _196  and  _198
REMARK   84  A    between atoms: _198  and  _199
REMARK   85  A    between atoms: _198  and  _201
REMARK   86  A    between atoms: _201  and  _202
REMARK   87  A    between atoms: _212  and  _214
REMARK   88  A    between atoms: _214  and  _215
REMARK   89  A    between atoms: _214  and  _217
REMARK   90  A    between atoms: _217  and  _218
REMARK   91  A    between atoms: _218  and  _219
REMARK   92  A    between atoms: _221  and  _223
REMARK   93  A    between atoms: _223  and  _224
REMARK   94  A    between atoms: _226  and  _228
REMARK   95  A    between atoms: _228  and  _229
REMARK   96  A    between atoms: _228  and  _231
REMARK   97  A    between atoms: _231  and  _232
REMARK   98  A    between atoms: _235  and  _237
REMARK   99  A    between atoms: _237  and  _238
REMARK  100  A    between atoms: _237  and  _240
REMARK  101  A    between atoms: _240  and  _241
REMARK  102  A    between atoms: _241  and  _242
REMARK  103  A    between atoms: _244  and  _246
REMARK  104  A    between atoms: _246  and  _247
REMARK  105  A    between atoms: _246  and  _249
REMARK  106  A    between atoms: _252  and  _254
REMARK  107  A    between atoms: _254  and  _255
REMARK  108  A    between atoms: _254  and  _257
REMARK  109  A    between atoms: _257  and  _258
REMARK  110  A    between atoms: _264  and  _266
REMARK  111  A    between atoms: _266  and  _267
REMARK  112  A    between atoms: _270  and  _272
REMARK  113  A    between atoms: _272  and  _273
REMARK  114  A    between atoms: _272  and  _275
REMARK  115  A    between atoms: _275  and  _276
REMARK  116  A    between atoms: _276  and  _277
REMARK  117  A    between atoms: _279  and  _281
REMARK  118  A    between atoms: _281  and  _282
REMARK  119  A    between atoms: _284  and  _286
REMARK  120  A    between atoms: _286  and  _287
REMARK  121  A    between atoms: _286  and  _289
REMARK  122  A    between atoms: _289  and  _290
REMARK  123  A    between atoms: _300  and  _302
REMARK  124  A    between atoms: _302  and  _303
REMARK  125  A    between atoms: _302  and  _305
REMARK  126  A    between atoms: _305  and  _306
REMARK  127  A    between atoms: _306  and  _307
REMARK  128  A    between atoms: _307  and  _308
REMARK  129  A    between atoms: _317  and  _319
REMARK  130  A    between atoms: _319  and  _320
REMARK  131  A    between atoms: _319  and  _322
REMARK  132  A    between atoms: _322  and  _323
REMARK  133  A    between atoms: _325  and  _327
REMARK  134  A    between atoms: _327  and  _328
REMARK  135  A    between atoms: _327  and  _330
REMARK  136  A    between atoms: _330  and  _331
REMARK  137  A    between atoms: _334  and  _336
REMARK  138  A    between atoms: _336  and  _337
REMARK  139  A    between atoms: _336  and  _339
REMARK  140  A    between atoms: _339  and  _340
REMARK  141  A    between atoms: _345  and  _346
REMARK  142  A    between atoms: _348  and  _350
REMARK  143  A    between atoms: _350  and  _351
REMARK  144  A    between atoms: _350  and  _353
REMARK  145  A    between atoms: _353  and  _354
REMARK  146  A    between atoms: _360  and  _362
REMARK  147  A    between atoms: _362  and  _363
REMARK  148  A    between atoms: _366  and  _368
REMARK  149  A    between atoms: _368  and  _369
REMARK  150  A    between atoms: _368  and  _371
REMARK  151  A    between atoms: _371  and  _372
REMARK  152  A    between atoms: _375  and  _377
REMARK  153  A    between atoms: _377  and  _378
REMARK  154  A    between atoms: _377  and  _380
REMARK  155  A    between atoms: _380  and  _381
REMARK  156  A    between atoms: _387  and  _389
REMARK  157  A    between atoms: _389  and  _390
REMARK  158  A    between atoms: _389  and  _392
REMARK  159  A    between atoms: _392  and  _393
REMARK  160  A    between atoms: _395  and  _397
REMARK  161  A    between atoms: _397  and  _398
REMARK  162  A    between atoms: _397  and  _400
REMARK  163  A    between atoms: _400  and  _401
REMARK  164  A    between atoms: _401  and  _402
REMARK  165  A    between atoms: _404  and  _406
REMARK  166  A    between atoms: _406  and  _407
REMARK  167  A    between atoms: _406  and  _409
REMARK  168  A    between atoms: _409  and  _410
REMARK  169  A    between atoms: _410  and  _411
REMARK  170  A    between atoms: _416  and  _418
REMARK  171  A    between atoms: _418  and  _419
REMARK  172  A    between atoms: _418  and  _421
REMARK  173  A    between atoms: _423  and  _425
REMARK  174  A    between atoms: _425  and  _426
REMARK  175  A    between atoms: _425  and  _428
REMARK  176  A    between atoms: _428  and  _429
REMARK  177  A    between atoms: _429  and  _430
REMARK  178  A    between atoms: _432  and  _434
REMARK  179  A    between atoms: _434  and  _435
REMARK  180  A    between atoms: _434  and  _437
REMARK  181  A    between atoms: _437  and  _438
REMARK  182  A    between atoms: _441  and  _443
REMARK  183  A    between atoms: _443  and  _444
REMARK  184  A    between atoms: _443  and  _446
REMARK  185  A    between atoms: _449  and  _451
REMARK  186  A    between atoms: _451  and  _452
REMARK  187  A    between atoms: _451  and  _454
REMARK  188  A    between atoms: _454  and  _455
REMARK  189  A    between atoms: _458  and  _460
REMARK  190  A    between atoms: _460  and  _461
REMARK  191  A    between atoms: _464  and  _466
REMARK  192  A    between atoms: _466  and  _467
REMARK  193  A    between atoms: _466  and  _469
REMARK  194  A    between atoms: _469  and  _470
REMARK  195  A    between atoms: _473  and  _475
REMARK  196  A    between atoms: _475  and  _476
REMARK  197  A    between atoms: _475  and  _478
REMARK  198  A    between atoms: _478  and  _479
REMARK  199  A    between atoms: _484  and  _486
REMARK  200  A    between atoms: _486  and  _487
REMARK  201  A    between atoms: _486  and  _489
REMARK  202  A    between atoms: _489  and  _490
REMARK  203  A    between atoms: _490  and  _491
REMARK  204  A    between atoms: _496  and  _498
REMARK  205  A    between atoms: _498  and  _499
REMARK  206  A    between atoms: _498  and  _501
REMARK  207  A    between atoms: _501  and  _502
REMARK  208  A    between atoms: _508  and  _510
REMARK  209  A    between atoms: _510  and  _511
REMARK  210  A    between atoms: _510  and  _513
REMARK  211  A    between atoms: _513  and  _514
REMARK  212  A    between atoms: _517  and  _519
REMARK  213  A    between atoms: _519  and  _520
REMARK  214  A    between atoms: _519  and  _522
REMARK  215  A    between atoms: _522  and  _523
REMARK  216  A    between atoms: _529  and  _531
REMARK  217  A    between atoms: _531  and  _532
REMARK  218  A    between atoms: _531  and  _534
REMARK  219  A    between atoms: _534  and  _535
REMARK  220  A    between atoms: _538  and  _540
REMARK  221  A    between atoms: _540  and  _541
REMARK  222  A    between atoms: _540  and  _543
REMARK  223  A    between atoms: _543  and  _544
REMARK  224  A    between atoms: _547  and  _549
REMARK  225  A    between atoms: _549  and  _550
REMARK  226  A    between atoms: _549  and  _552
REMARK  227  A    between atoms: _552  and  _553
REMARK  228  A    between atoms: _556  and  _558
REMARK  229  A    between atoms: _558  and  _559
REMARK  230  A    between atoms: _558  and  _561
REMARK  231  A    between atoms: _564  and  _566
REMARK  232  A    between atoms: _566  and  _567
REMARK  233  A    between atoms: _566  and  _569
REMARK  234  A    between atoms: _569  and  _570
REMARK  235  A    between atoms: _573  and  _575
REMARK  236  A    between atoms: _575  and  _576
REMARK  237  A    between atoms: _575  and  _578
REMARK  238  A    between atoms: _578  and  _579
REMARK  239  A    between atoms: _586  and  _587
REMARK  240  A    between atoms: _592  and  _594
REMARK  241  A    between atoms: _594  and  _595
REMARK  242  A    between atoms: _594  and  _597
REMARK  243  A    between atoms: _597  and  _598
REMARK  244  A    between atoms: _598  and  _599
REMARK  245  A    between atoms: _601  and  _603
REMARK  246  A    between atoms: _603  and  _604
REMARK  247  A    between atoms: _603  and  _606
REMARK  248  A    between atoms: _606  and  _607
REMARK  249  A    between atoms: _607  and  _608
REMARK  250  A    between atoms: _610  and  _612
REMARK  251  A    between atoms: _612  and  _613
REMARK  252  A    between atoms: _616  and  _618
REMARK  253  A    between atoms: _618  and  _619
REMARK  254  A    between atoms: _618  and  _621
REMARK  255  A    between atoms: _621  and  _622
REMARK  256  A    between atoms: _625  and  _627
REMARK  257  A    between atoms: _627  and  _628
REMARK  258  A    between atoms: _627  and  _630
REMARK  259  A    between atoms: _630  and  _631
REMARK  260  A    between atoms: _634  and  _636
REMARK  261  A    between atoms: _636  and  _637
REMARK  262  A    between atoms: _636  and  _639
REMARK  263  A    between atoms: _639  and  _640
REMARK  264  A    between atoms: _642  and  _644
REMARK  265  A    between atoms: _644  and  _645
REMARK  266  A    between atoms: _644  and  _647
REMARK  267  A    between atoms: _650  and  _652
REMARK  268  A    between atoms: _652  and  _653
REMARK  269  A    between atoms: _652  and  _655
REMARK  270  A    between atoms: _655  and  _656
REMARK  271  A    between atoms: _656  and  _657
REMARK  272  A    between atoms: _662  and  _664
REMARK  273  A    between atoms: _664  and  _665
REMARK  274  A    between atoms: _664  and  _667
REMARK  275  A    between atoms: _671  and  _672
REMARK  276  A    between atoms: _677  and  _679
REMARK  277  A    between atoms: _679  and  _680
REMARK  278  A    between atoms: _679  and  _682
REMARK  279  A    between atoms: _682  and  _683
REMARK  280  A    between atoms: _686  and  _688
REMARK  281  A    between atoms: _688  and  _689
REMARK  282  A    between atoms: _688  and  _691
REMARK  283  A    between atoms: _691  and  _692
REMARK                            x       y       z     vdW  Elec       q    Type
REMARK                         _______ _______ _______ _____ _____    ______ ____
ROOT
ATOM      1  C   GLU A   7      33.926   7.520   2.789  0.00  0.00    +0.241 C 
ATOM      2  O   GLU A   7      34.051   8.299   3.737  0.00  0.00    -0.273 OA
ATOM      3  N   LEU A   8      32.803   7.430   2.079  0.00  0.00    -0.297 N 
ATOM      4  H   LEU A   8      32.749   6.766   1.280  0.00  0.00    +0.150 HD
ENDROOT
BRANCH   1   5
ATOM      5  CA  GLU A   7      35.081   6.604   2.380  0.00  0.00    +0.149 C 
BRANCH   5   8
ATOM      6  C   ASN A   6      34.004   4.533   3.131  0.00  0.00    +0.241 C 
ATOM      7  O   ASN A   6      33.820   4.961   4.269  0.00  0.00    -0.273 OA
ATOM      8  N   GLU A   7      34.601   5.238   2.171  0.00  0.00    -0.297 N 
ATOM      9  H   GLU A   7      34.731   4.800   1.237  0.00  0.00    +0.150 HD
BRANCH   6  10
ATOM     10  CA  ASN A   6      33.554   3.126   2.757  0.00  0.00    +0.158 C 
BRANCH  10  13
ATOM     11  C   LEU A   5      31.620   3.831   1.468  0.00  0.00    +0.241 C 
ATOM     12  O   LEU A   5      31.171   4.462   2.423  0.00  0.00    -0.273 OA
ATOM     13  N   ASN A   6      32.769   3.156   1.526  0.00  0.00    -0.297 N 
ATOM     14  H   ASN A   6      33.109   2.646   0.686  0.00  0.00    +0.150 HD
BRANCH  11  15
ATOM     15  CA  LEU A   5      30.878   3.816   0.137  0.00  0.00    +0.149 C 
BRANCH  15  18
ATOM     16  C   SER A   4      32.540   5.087  -1.059  0.00  0.00    +0.243 C 
ATOM     17  O   SER A   4      32.354   6.063  -0.334  0.00  0.00    -0.273 OA
ATOM     18  N   LEU A   5      31.864   3.951  -0.924  0.00  0.00    -0.297 N 
ATOM     19  H   LEU A   5      32.040   3.160  -1.576  0.00  0.00    +0.150 HD
BRANCH  16  20
ATOM     20  CA  SER A   4      33.577   5.139  -2.171  0.00  0.00    +0.178 C 
BRANCH  20  23
ATOM     21  C   SER A   3      35.058   3.412  -1.364  0.00  0.00    +0.243 C 
ATOM     22  O   SER A   3      35.324   4.064  -0.360  0.00  0.00    -0.273 OA
ATOM     23  N   SER A   4      34.225   3.847  -2.301  0.00  0.00    -0.295 N 
ATOM     24  H   SER A   4      34.035   3.257  -3.136  0.00  0.00    +0.150 HD
BRANCH  21  25
ATOM     25  CA  SER A   3      35.669   2.033  -1.588  0.00  0.00    +0.178 C 
BRANCH  25  28
ATOM     26  C   LEU A   2      33.561   0.874  -1.548  0.00  0.00    +0.241 C 
ATOM     27  O   LEU A   2      33.366   1.255  -0.395  0.00  0.00    -0.273 OA
ATOM     28  N   SER A   3      34.664   1.185  -2.216  0.00  0.00    -0.295 N 
ATOM     29  H   SER A   3      34.810   0.826  -3.181  0.00  0.00    +0.150 HD
BRANCH  26  30
ATOM     30  CA  LEU A   2      32.525   0.010  -2.267  0.00  0.00    +0.149 C 
BRANCH  30  33
ATOM     31  C   LEU A   1      31.796   1.471  -4.053  0.00  0.00    +0.238 C 
ATOM     32  O   LEU A   1      31.373   2.305  -3.248  0.00  0.00    -0.274 OA
ATOM     33  N   LEU A   2      32.374   0.336  -3.678  0.00  0.00    -0.297 N 
ATOM     34  H   LEU A   2      32.722  -0.327  -4.400  0.00  0.00    +0.150 HD
BRANCH  31  35
ATOM     35  CA  LEU A   1      31.692   1.709  -5.555  0.00  0.00    +0.145 C 
BRANCH  35  36
ATOM     36  N   LEU A   1      32.934   1.306  -6.199  0.00  0.00    -0.238 NA
ATOM     37  H   LEU A   1      32.930   0.519  -6.879  0.00  0.00    +0.142 HD
ENDBRANCH  35  36
BRANCH  35  38
ATOM     38  CB  LEU A   1      30.502   0.929  -6.134  0.00  0.00    +0.026 C 
BRANCH  38  39
ATOM     39  CG  LEU A   1      29.995   1.312  -7.533  0.00  0.00    +0.002 C 
ATOM     40  CD2 LEU A   1      29.491   2.758  -7.539  0.00  0.00    +0.000 C 
ATOM     41  CD1 LEU A   1      28.873   0.361  -7.937  0.00  0.00    +0.000 C 
ENDBRANCH  38  39
ENDBRANCH  35  38
ENDBRANCH  31  35
ENDBRANCH  30  33
BRANCH  30  42
ATOM     42  CB  LEU A   2      32.853  -1.475  -2.101  0.00  0.00    +0.029 C 
BRANCH  42  43
ATOM     43  CG  LEU A   2      31.637  -2.309  -1.670  0.00  0.00    +0.002 C 
ATOM     44  CD2 LEU A   2      31.208  -1.862  -0.273  0.00  0.00    +0.000 C 
ATOM     45  CD1 LEU A   2      30.477  -2.143  -2.672  0.00  0.00    +0.000 C 
ENDBRANCH  42  43
ENDBRANCH  30  42
ENDBRANCH  26  30
ENDBRANCH  25  28
BRANCH  25  46
ATOM     46  CB  SER A   3      36.907   2.134  -2.474  0.00  0.00    +0.166 C 
BRANCH  46  47
ATOM     47  OG  SER A   3      37.593   0.895  -2.470  0.00  0.00    -0.380 OA
ATOM     48  H   SER A   3      36.995   0.187  -2.817  0.00  0.00    +0.211 HD
ENDBRANCH  46  47
ENDBRANCH  25  46
ENDBRANCH  21  25
ENDBRANCH  20  23
BRANCH  20  49
ATOM     49  CB  SER A   4      32.931   5.555  -3.496  0.00  0.00    +0.166 C 
BRANCH  49  50
ATOM     50  OG  SER A   4      33.931   5.884  -4.447  0.00  0.00    -0.380 OA
ATOM     51  H   SER A   4      33.501   6.151  -5.298  0.00  0.00    +0.211 HD
ENDBRANCH  49  50
ENDBRANCH  20  49
ENDBRANCH  16  20
ENDBRANCH  15  18
BRANCH  15  52
ATOM     52  CB  LEU A   5      30.064   2.519  -0.012  0.00  0.00    +0.029 C 
BRANCH  52  53
ATOM     53  CG  LEU A   5      28.920   2.564  -1.041  0.00  0.00    +0.002 C 
ATOM     54  CD2 LEU A   5      27.926   3.643  -0.636  0.00  0.00    +0.000 C 
ATOM     55  CD1 LEU A   5      28.225   1.203  -1.134  0.00  0.00    +0.000 C 
ENDBRANCH  52  53
ENDBRANCH  15  52
ENDBRANCH  11  15
ENDBRANCH  10  13
BRANCH  10  56
ATOM     56  CB  ASN A   6      34.785   2.224   2.617  0.00  0.00    +0.114 C 
BRANCH  56  57
ATOM     57  CG  ASN A   6      34.436   0.746   2.615  0.00  0.00    +0.222 C 
ATOM     58  OD1 ASN A   6      33.375   0.344   3.089  0.00  0.00    -0.275 OA
ATOM     59  ND2 ASN A   6      35.347  -0.075   2.099  0.00  0.00    -0.329 N 
ATOM     60 HD21 ASN A   6      35.175  -1.101   2.086  0.00  0.00    +0.145 HD
ATOM     61 HD22 ASN A   6      36.231   0.309   1.709  0.00  0.00    +0.145 HD
ENDBRANCH  56  57
ENDBRANCH  10  56
ENDBRANCH   6  10
ENDBRANCH   5   8
BRANCH   5  62
ATOM     62  CB  GLU A   7      35.746   7.129   1.101  0.00  0.00    +0.041 C 
BRANCH  62  63
ATOM     63  CG  GLU A   7      36.176   8.596   1.155  0.00  0.00    +0.116 C 
BRANCH  63  64
ATOM     64  CD  GLU A   7      37.308   8.850   2.133  0.00  0.00    +0.365 C 
ATOM     65  OE2 GLU A   7      37.951   7.874   2.566  0.00  0.00    -0.246 OA
ATOM     66  OE1 GLU A   7      37.557  10.029   2.462  0.00  0.00    -0.246 OA
ENDBRANCH  63  64
ENDBRANCH  62  63
ENDBRANCH   5  62
ENDBRANCH   1   5
BRANCH   3  67
ATOM     67  CA  LEU A   8      31.645   8.257   2.413  0.00  0.00    +0.149 C 
BRANCH  67  68
ATOM     68  C   LEU A   8      31.197   7.991   3.847  0.00  0.00    +0.241 C 
ATOM     69  O   LEU A   8      30.955   8.924   4.609  0.00  0.00    -0.273 OA
ATOM     70  N   GLY A   9      31.091   6.715   4.208  0.00  0.00    -0.295 N 
ATOM     71  H   GLY A   9      31.316   5.966   3.523  0.00  0.00    +0.150 HD
BRANCH  70  72
ATOM     72  CA  GLY A   9      30.664   6.358   5.551  0.00  0.00    +0.176 C 
BRANCH  72  73
ATOM     73  C   GLY A   9      31.536   7.001   6.605  0.00  0.00    +0.243 C 
ATOM     74  O   GLY A   9      31.051   7.537   7.599  0.00  0.00    -0.273 OA
ATOM     75  N   GLU A  10      32.839   6.960   6.368  0.00  0.00    -0.297 N 
ATOM     76  H   GLU A  10      33.176   6.498   5.500  0.00  0.00    +0.150 HD
BRANCH  75  77
ATOM     77  CA  GLU A  10      33.814   7.538   7.278  0.00  0.00    +0.149 C 
BRANCH  77  78
ATOM     78  C   GLU A  10      33.693   9.062   7.369  0.00  0.00    +0.241 C 
ATOM     79  O   GLU A  10      33.847   9.645   8.444  0.00  0.00    -0.273 OA
ATOM     80  N   ARG A  11      33.430   9.706   6.238  0.00  0.00    -0.297 N 
ATOM     81  H   ARG A  11      33.329   9.169   5.353  0.00  0.00    +0.150 HD
BRANCH  80  82
ATOM     82  CA  ARG A  11      33.282  11.146   6.221  0.00  0.00    +0.149 C 
BRANCH  82  83
ATOM     83  C   ARG A  11      32.036  11.548   7.004  0.00  0.00    +0.241 C 
ATOM     84  O   ARG A  11      32.064  12.517   7.770  0.00  0.00    -0.273 OA
ATOM     85  N   GLN A  12      30.948  10.804   6.821  0.00  0.00    -0.297 N 
ATOM     86  H   GLN A  12      30.978   9.999   6.163  0.00  0.00    +0.150 HD
BRANCH  85  87
ATOM     87  CA  GLN A  12      29.714  11.109   7.537  0.00  0.00    +0.149 C 
BRANCH  87  88
ATOM     88  C   GLN A  12      29.877  10.895   9.044  0.00  0.00    +0.241 C 
ATOM     89  O   GLN A  12      29.264  11.603   9.840  0.00  0.00    -0.273 OA
ATOM     90  N   LEU A  13      30.711   9.933   9.431  0.00  0.00    -0.298 N 
ATOM     91  H   LEU A  13      31.207   9.368   8.712  0.00  0.00    +0.150 HD
BRANCH  90  92
ATOM     92  CA  LEU A  13      30.943   9.657  10.844  0.00  0.00    +0.137 C 
BRANCH  92  93
ATOM     93  C   LEU A  13      31.537  10.883  11.525  0.00  0.00    +0.227 C 
ATOM     94  O   LEU A  13      31.220  11.168  12.678  0.00  0.00    -0.286 OA
ENDBRANCH  92  93
BRANCH  92  95
ATOM     95  CB  LEU A  13      31.896   8.462  11.027  0.00  0.00    +0.028 C 
BRANCH  95  96
ATOM     96  CG  LEU A  13      32.247   8.126  12.489  0.00  0.00    +0.002 C 
ATOM     97  CD2 LEU A  13      30.972   7.849  13.261  0.00  0.00    +0.000 C 
ATOM     98  CD1 LEU A  13      33.164   6.923  12.564  0.00  0.00    +0.000 C 
ENDBRANCH  95  96
ENDBRANCH  92  95
ENDBRANCH  90  92
ENDBRANCH  87  88
BRANCH  87  99
ATOM     99  CB  GLN A  12      28.545  10.272   6.990  0.00  0.00    +0.039 C 
BRANCH  99 100
ATOM    100  CG  GLN A  12      28.166  10.663   5.564  0.00  0.00    +0.087 C 
BRANCH 100 101
ATOM    101  CD  GLN A  12      26.877  10.040   5.065  0.00  0.00    +0.219 C 
ATOM    102  NE2 GLN A  12      26.057   9.512   5.982  0.00  0.00    -0.329 N 
ATOM    103 HE21 GLN A  12      26.322   9.528   6.988  0.00  0.00    +0.145 HD
ATOM    104 HE22 GLN A  12      25.155   9.086   5.689  0.00  0.00    +0.145 HD
ATOM    105  OE1 GLN A  12      26.611  10.047   3.861  0.00  0.00    -0.275 OA
ENDBRANCH 100 101
ENDBRANCH  99 100
ENDBRANCH  87  99
ENDBRANCH  85  87
ENDBRANCH  82  83
BRANCH  82 106
ATOM    106  CB  ARG A  11      33.206  11.659   4.777  0.00  0.00    +0.033 C 
BRANCH 106 107
ATOM    107  CG  ARG A  11      34.529  11.537   4.009  0.00  0.00    +0.045 C 
BRANCH 107 108
ATOM    108  CD  ARG A  11      34.401  12.119   2.615  0.00  0.00    +0.174 C 
BRANCH 108 109
ATOM    109  NE  ARG A  11      35.641  12.003   1.854  0.00  0.00    -0.265 N 
ATOM    110  HE  ARG A  11      36.409  11.429   2.256  0.00  0.00    +0.259 HD
ATOM    111  CZ  ARG A  11      35.847  12.586   0.681  0.00  0.00    +0.342 C 
ATOM    112  NH2 ARG A  11      34.894  13.322   0.131  0.00  0.00    -0.292 N 
ATOM    113 HH21 ARG A  11      33.984  13.443   0.619  0.00  0.00    +0.255 HD
ATOM    114 HH22 ARG A  11      35.056  13.779  -0.789  0.00  0.00    +0.255 HD
ATOM    115  NH1 ARG A  11      37.015  12.445   0.064  0.00  0.00    -0.292 N 
ATOM    116 HH11 ARG A  11      37.769  11.877   0.501  0.00  0.00    +0.255 HD
ATOM    117 HH12 ARG A  11      37.176  12.903  -0.856  0.00  0.00    +0.255 HD
ENDBRANCH 108 109
ENDBRANCH 107 108
ENDBRANCH 106 107
ENDBRANCH  82 106
ENDBRANCH  80  82
ENDBRANCH  77  78
BRANCH  77 118
ATOM    118  CB  GLU A  10      35.211   7.155   6.811  0.00  0.00    +0.041 C 
BRANCH 118 119
ATOM    119  CG  GLU A  10      36.304   7.600   7.725  0.00  0.00    +0.116 C 
BRANCH 119 120
ATOM    120  CD  GLU A  10      37.348   6.530   7.905  0.00  0.00    +0.365 C 
ATOM    121  OE2 GLU A  10      37.071   5.521   8.600  0.00  0.00    -0.246 OA
ATOM    122  OE1 GLU A  10      38.444   6.699   7.338  0.00  0.00    -0.246 OA
ENDBRANCH 119 120
ENDBRANCH 118 119
ENDBRANCH  77 118
ENDBRANCH  75  77
ENDBRANCH  72  73
ENDBRANCH  70  72
ENDBRANCH  67  68
BRANCH  67 123
ATOM    123  CB  LEU A   8      30.477   7.986   1.459  0.00  0.00    +0.029 C 
BRANCH 123 124
ATOM    124  CG  LEU A   8      29.188   8.772   1.731  0.00  0.00    +0.002 C 
ATOM    125  CD2 LEU A   8      29.461  10.280   1.731  0.00  0.00    +0.000 C 
ATOM    126  CD1 LEU A   8      28.160   8.420   0.666  0.00  0.00    +0.000 C 
ENDBRANCH 123 124
ENDBRANCH  67 123
ENDBRANCH   3  67
TORSDOF 55
REMARK  Name = ../refined-set-2016/3b5r/3b5r_pocket.pdb
REMARK  283 active torsions:
REMARK  status: ('A' for Active; 'I' for Inactive)
REMARK    1  A    between atoms: _1  and  _3
REMARK    2  A    between atoms: _3  and  _4
REMARK    3  A    between atoms: _3  and  _6
REMARK    4  A    between atoms: _9  and  _11
REMARK    5  A    between atoms: _11  and  _12
REMARK    6  A    between atoms: _15  and  _17
REMARK    7  A    between atoms: _17  and  _18
REMARK    8  A    between atoms: _17  and  _20
REMARK    9  A    between atoms: _20  and  _21
REMARK   10  A    between atoms: _27  and  _29
REMARK   11  A    between atoms: _29  and  _30
REMARK   12  A    between atoms: _29  and  _32
REMARK   13  A    between atoms: _32  and  _33
REMARK   14  A    between atoms: _36  and  _38
REMARK   15  A    between atoms: _38  and  _39
REMARK   16  A    between atoms: _38  and  _41
REMARK   17  A    between atoms: _41  and  _42
REMARK   18  A    between atoms: _45  and  _47
REMARK   19  A    between atoms: _47  and  _48
REMARK   20  A    between atoms: _47  and  _50
REMARK   21  A    between atoms: _50  and  _51
REMARK   22  A    between atoms: _53  and  _55
REMARK   23  A    between atoms: _55  and  _56
REMARK   24  A    between atoms: _55  and  _58
REMARK   25  A    between atoms: _58  and  _59
REMARK   26  A    between atoms: _61  and  _63
REMARK   27  A    between atoms: _63  and  _64
REMARK   28  A    between atoms: _63  and  _66
REMARK   29  A    between atoms: _66  and  _67
REMARK   30  A    between atoms: _70  and  _72
REMARK   31  A    between atoms: _72  and  _73
REMARK   32  A    between atoms: _72  and  _75
REMARK   33  A    between atoms: _75  and  _76
REMARK   34  A    between atoms: _81  and  _83
REMARK   35  A    between atoms: _83  and  _84
REMARK   36  A    between atoms: _83  and  _86
REMARK   37  A    between atoms: _86  and  _87
REMARK   38  A    between atoms: _87  and  _88
REMARK   39  A    between atoms: _91  and  _93
REMARK   40  A    between atoms: _93  and  _94
REMARK   41  A    between atoms: _93  and  _96
REMARK   42  A    between atoms: _96  and  _97
REMARK   43  A    between atoms: _100  and  _102
REMARK   44  A    between atoms: _102  and  _103
REMARK   45  A    between atoms: _105  and  _107
REMARK   46  A    between atoms: _107  and  _108
REMARK   47  A    between atoms: _107  and  _110
REMARK   48  A    between atoms: _110  and  _111
REMARK   49  A    between atoms: _111  and  _112
REMARK   50  A    between atoms: _115  and  _117
REMARK   51  A    between atoms: _117  and  _118
REMARK   52  A    between atoms: _117  and  _120
REMARK   53  A    between atoms: _120  and  _121
REMARK   54  A    between atoms: _121  and  _122
REMARK   55  A    between atoms: _122  and  _123
REMARK   56  A    between atoms: _132  and  _134
REMARK   57  A    between atoms: _134  and  _135
REMARK   58  A    between atoms: _134  and  _137
REMARK   59  A    between atoms: _137  and  _138
REMARK   60  A    between atoms: _138  and  _139
REMARK   61  A    between atoms: _144  and  _146
REMARK   62  A    between atoms: _146  and  _147
REMARK   63  A    between atoms: _146  and  _149
REMARK   64  A    between atoms: _149  and  _150
REMARK   65  A    between atoms: _153  and  _155
REMARK   66  A    between atoms: _155  and  _156
REMARK   67  A    between atoms: _155  and  _158
REMARK   68  A    between atoms: _158  and  _159
REMARK   69  A    between atoms: _162  and  _164
REMARK   70  A    between atoms: _164  and  _165
REMARK   71  A    between atoms: _164  and  _167
REMARK   72  A    between atoms: _167  and  _168
REMARK   73  A    between atoms: _168  and  _169
REMARK   74  A    between atoms: _174  and  _176
REMARK   75  A    between atoms: _176  and  _177
REMARK   76  A    between atoms: _176  and  _179
REMARK   77  A    between atoms: _179  and  _180
REMARK   78  A    between atoms: _185  and  _186
REMARK   79  A    between atoms: _188  and  _190
REMARK   80  A    between atoms: _190  and  _191
REMARK   81  A    between atoms: _190  and  _193
REMARK   82  A    between atoms: _193  and  _194
REMARK   83  A    between atoms: _196  and  _198
REMARK   84  A    between atoms: _198  and  _199
REMARK   85  A    between atoms: _198  and  _201
REMARK   86  A    between atoms: _201  and  _202
REMARK   87  A    between atoms: _212  and  _214
REMARK   88  A    between atoms: _214  and  _215
REMARK   89  A    between atoms: _214  and  _217
REMARK   90  A    between atoms: _217  and  _218
REMARK   91  A    between atoms: _218  and  _219
REMARK   92  A    between atoms: _221  and  _223
REMARK   93  A    between atoms: _223  and  _224
REMARK   94  A    between atoms: _226  and  _228
REMARK   95  A    between atoms: _228  and  _229
REMARK   96  A    between atoms: _228  and  _231
REMARK   97  A    between atoms: _231  and  _232
REMARK   98  A    between atoms: _235  and  _237
REMARK   99  A    between atoms: _237  and  _238
REMARK  100  A    between atoms: _237  and  _240
REMARK  101  A    between atoms: _240  and  _241
REMARK  102  A    between atoms: _241  and  _242
REMARK  103  A    between atoms: _244  and  _246
REMARK  104  A    between atoms: _246  and  _247
REMARK  105  A    between atoms: _246  and  _249
REMARK  106  A    between atoms: _252  and  _254
REMARK  107  A    between atoms: _254  and  _255
REMARK  108  A    between atoms: _254  and  _257
REMARK  109  A    between atoms: _257  and  _258
REMARK  110  A    between atoms: _264  and  _266
REMARK  111  A    between atoms: _266  and  _267
REMARK  112  A    between atoms: _270  and  _272
REMARK  113  A    between atoms: _272  and  _273
REMARK  114  A    between atoms: _272  and  _275
REMARK  115  A    between atoms: _275  and  _276
REMARK  116  A    between atoms: _276  and  _277
REMARK  117  A    between atoms: _279  and  _281
REMARK  118  A    between atoms: _281  and  _282
REMARK  119  A    between atoms: _284  and  _286
REMARK  120  A    between atoms: _286  and  _287
REMARK  121  A    between atoms: _286  and  _289
REMARK  122  A    between atoms: _289  and  _290
REMARK  123  A    between atoms: _300  and  _302
REMARK  124  A    between atoms: _302  and  _303
REMARK  125  A    between atoms: _302  and  _305
REMARK  126  A    between atoms: _305  and  _306
REMARK  127  A    between atoms: _306  and  _307
REMARK  128  A    between atoms: _307  and  _308
REMARK  129  A    between atoms: _317  and  _319
REMARK  130  A    between atoms: _319  and  _320
REMARK  131  A    between atoms: _319  and  _322
REMARK  132  A    between atoms: _322  and  _323
REMARK  133  A    between atoms: _325  and  _327
REMARK  134  A    between atoms: _327  and  _328
REMARK  135  A    between atoms: _327  and  _330
REMARK  136  A    between atoms: _330  and  _331
REMARK  137  A    between atoms: _334  and  _336
REMARK  138  A    between atoms: _336  and  _337
REMARK  139  A    between atoms: _336  and  _339
REMARK  140  A    between atoms: _339  and  _340
REMARK  141  A    between atoms: _345  and  _346
REMARK  142  A    between atoms: _348  and  _350
REMARK  143  A    between atoms: _350  and  _351
REMARK  144  A    between atoms: _350  and  _353
REMARK  145  A    between atoms: _353  and  _354
REMARK  146  A    between atoms: _360  and  _362
REMARK  147  A    between atoms: _362  and  _363
REMARK  148  A    between atoms: _366  and  _368
REMARK  149  A    between atoms: _368  and  _369
REMARK  150  A    between atoms: _368  and  _371
REMARK  151  A    between atoms: _371  and  _372
REMARK  152  A    between atoms: _375  and  _377
REMARK  153  A    between atoms: _377  and  _378
REMARK  154  A    between atoms: _377  and  _380
REMARK  155  A    between atoms: _380  and  _381
REMARK  156  A    between atoms: _387  and  _389
REMARK  157  A    between atoms: _389  and  _390
REMARK  158  A    between atoms: _389  and  _392
REMARK  159  A    between atoms: _392  and  _393
REMARK  160  A    between atoms: _395  and  _397
REMARK  161  A    between atoms: _397  and  _398
REMARK  162  A    between atoms: _397  and  _400
REMARK  163  A    between atoms: _400  and  _401
REMARK  164  A    between atoms: _401  and  _402
REMARK  165  A    between atoms: _404  and  _406
REMARK  166  A    between atoms: _406  and  _407
REMARK  167  A    between atoms: _406  and  _409
REMARK  168  A    between atoms: _409  and  _410
REMARK  169  A    between atoms: _410  and  _411
REMARK  170  A    between atoms: _416  and  _418
REMARK  171  A    between atoms: _418  and  _419
REMARK  172  A    between atoms: _418  and  _421
REMARK  173  A    between atoms: _423  and  _425
REMARK  174  A    between atoms: _425  and  _426
REMARK  175  A    between atoms: _425  and  _428
REMARK  176  A    between atoms: _428  and  _429
REMARK  177  A    between atoms: _429  and  _430
REMARK  178  A    between atoms: _432  and  _434
REMARK  179  A    between atoms: _434  and  _435
REMARK  180  A    between atoms: _434  and  _437
REMARK  181  A    between atoms: _437  and  _438
REMARK  182  A    between atoms: _441  and  _443
REMARK  183  A    between atoms: _443  and  _444
REMARK  184  A    between atoms: _443  and  _446
REMARK  185  A    between atoms: _449  and  _451
REMARK  186  A    between atoms: _451  and  _452
REMARK  187  A    between atoms: _451  and  _454
REMARK  188  A    between atoms: _454  and  _455
REMARK  189  A    between atoms: _458  and  _460
REMARK  190  A    between atoms: _460  and  _461
REMARK  191  A    between atoms: _464  and  _466
REMARK  192  A    between atoms: _466  and  _467
REMARK  193  A    between atoms: _466  and  _469
REMARK  194  A    between atoms: _469  and  _470
REMARK  195  A    between atoms: _473  and  _475
REMARK  196  A    between atoms: _475  and  _476
REMARK  197  A    between atoms: _475  and  _478
REMARK  198  A    between atoms: _478  and  _479
REMARK  199  A    between atoms: _484  and  _486
REMARK  200  A    between atoms: _486  and  _487
REMARK  201  A    between atoms: _486  and  _489
REMARK  202  A    between atoms: _489  and  _490
REMARK  203  A    between atoms: _490  and  _491
REMARK  204  A    between atoms: _496  and  _498
REMARK  205  A    between atoms: _498  and  _499
REMARK  206  A    between atoms: _498  and  _501
REMARK  207  A    between atoms: _501  and  _502
REMARK  208  A    between atoms: _508  and  _510
REMARK  209  A    between atoms: _510  and  _511
REMARK  210  A    between atoms: _510  and  _513
REMARK  211  A    between atoms: _513  and  _514
REMARK  212  A    between atoms: _517  and  _519
REMARK  213  A    between atoms: _519  and  _520
REMARK  214  A    between atoms: _519  and  _522
REMARK  215  A    between atoms: _522  and  _523
REMARK  216  A    between atoms: _529  and  _531
REMARK  217  A    between atoms: _531  and  _532
REMARK  218  A    between atoms: _531  and  _534
REMARK  219  A    between atoms: _534  and  _535
REMARK  220  A    between atoms: _538  and  _540
REMARK  221  A    between atoms: _540  and  _541
REMARK  222  A    between atoms: _540  and  _543
REMARK  223  A    between atoms: _543  and  _544
REMARK  224  A    between atoms: _547  and  _549
REMARK  225  A    between atoms: _549  and  _550
REMARK  226  A    between atoms: _549  and  _552
REMARK  227  A    between atoms: _552  and  _553
REMARK  228  A    between atoms: _556  and  _558
REMARK  229  A    between atoms: _558  and  _559
REMARK  230  A    between atoms: _558  and  _561
REMARK  231  A    between atoms: _564  and  _566
REMARK  232  A    between atoms: _566  and  _567
REMARK  233  A    between atoms: _566  and  _569
REMARK  234  A    between atoms: _569  and  _570
REMARK  235  A    between atoms: _573  and  _575
REMARK  236  A    between atoms: _575  and  _576
REMARK  237  A    between atoms: _575  and  _578
REMARK  238  A    between atoms: _578  and  _579
REMARK  239  A    between atoms: _586  and  _587
REMARK  240  A    between atoms: _592  and  _594
REMARK  241  A    between atoms: _594  and  _595
REMARK  242  A    between atoms: _594  and  _597
REMARK  243  A    between atoms: _597  and  _598
REMARK  244  A    between atoms: _598  and  _599
REMARK  245  A    between atoms: _601  and  _603
REMARK  246  A    between atoms: _603  and  _604
REMARK  247  A    between atoms: _603  and  _606
REMARK  248  A    between atoms: _606  and  _607
REMARK  249  A    between atoms: _607  and  _608
REMARK  250  A    between atoms: _610  and  _612
REMARK  251  A    between atoms: _612  and  _613
REMARK  252  A    between atoms: _616  and  _618
REMARK  253  A    between atoms: _618  and  _619
REMARK  254  A    between atoms: _618  and  _621
REMARK  255  A    between atoms: _621  and  _622
REMARK  256  A    between atoms: _625  and  _627
REMARK  257  A    between atoms: _627  and  _628
REMARK  258  A    between atoms: _627  and  _630
REMARK  259  A    between atoms: _630  and  _631
REMARK  260  A    between atoms: _634  and  _636
REMARK  261  A    between atoms: _636  and  _637
REMARK  262  A    between atoms: _636  and  _639
REMARK  263  A    between atoms: _639  and  _640
REMARK  264  A    between atoms: _642  and  _644
REMARK  265  A    between atoms: _644  and  _645
REMARK  266  A    between atoms: _644  and  _647
REMARK  267  A    between atoms: _650  and  _652
REMARK  268  A    between atoms: _652  and  _653
REMARK  269  A    between atoms: _652  and  _655
REMARK  270  A    between atoms: _655  and  _656
REMARK  271  A    between atoms: _656  and  _657
REMARK  272  A    between atoms: _662  and  _664
REMARK  273  A    between atoms: _664  and  _665
REMARK  274  A    between atoms: _664  and  _667
REMARK  275  A    between atoms: _671  and  _672
REMARK  276  A    between atoms: _677  and  _679
REMARK  277  A    between atoms: _679  and  _680
REMARK  278  A    between atoms: _679  and  _682
REMARK  279  A    between atoms: _682  and  _683
REMARK  280  A    between atoms: _686  and  _688
REMARK  281  A    between atoms: _688  and  _689
REMARK  282  A    between atoms: _688  and  _691
REMARK  283  A    between atoms: _691  and  _692
REMARK                            x       y       z     vdW  Elec       q    Type
REMARK                         _______ _______ _______ _____ _____    ______ ____
ROOT
ATOM      1  CA  MET A   9      23.130   7.098   7.906  0.00  0.00    +0.149 C 
ENDROOT
BRANCH   1   4
ATOM      2  C   LEU A   8      21.836   7.424   9.928  0.00  0.00    +0.241 C 
ATOM      3  O   LEU A   8      21.155   8.298   9.396  0.00  0.00    -0.273 OA
ATOM      4  N   MET A   9      22.819   6.790   9.293  0.00  0.00    -0.297 N 
ATOM      5  H   MET A   9      23.371   6.066   9.795  0.00  0.00    +0.150 HD
BRANCH   2   6
ATOM      6  CA  LEU A   8      21.580   7.021  11.377  0.00  0.00    +0.149 C 
BRANCH   6   8
ATOM      7  C   GLY A   7      20.931   4.735  10.872  0.00  0.00    +0.243 C 
ATOM      8  N   LEU A   8      21.699   5.581  11.554  0.00  0.00    -0.297 N 
ATOM      9  H   LEU A   8      22.398   5.206  12.227  0.00  0.00    +0.150 HD
ATOM     10  O   GLY A   7      20.067   5.112  10.079  0.00  0.00    -0.273 OA
BRANCH   7  11
ATOM     11  CA  GLY A   7      21.149   3.254  11.136  0.00  0.00    +0.176 C 
BRANCH  11  13
ATOM     12  C   MET A   6      23.362   3.132  10.178  0.00  0.00    +0.241 C 
ATOM     13  N   GLY A   7      22.546   2.869  11.194  0.00  0.00    -0.295 N 
ATOM     14  H   GLY A   7      22.912   2.383  12.037  0.00  0.00    +0.150 HD
ATOM     15  O   MET A   6      23.001   3.711   9.160  0.00  0.00    -0.273 OA
BRANCH  12  16
ATOM     16  CA  MET A   6      24.806   2.677  10.329  0.00  0.00    +0.149 C 
BRANCH  16  18
ATOM     17  C   TRP A   5      25.547   4.473  11.777  0.00  0.00    +0.241 C 
ATOM     18  N   MET A   6      25.429   3.170  11.554  0.00  0.00    -0.297 N 
ATOM     19  H   MET A   6      25.784   2.493  12.259  0.00  0.00    +0.150 HD
ATOM     20  O   TRP A   5      25.105   5.316  10.992  0.00  0.00    -0.273 OA
BRANCH  17  21
ATOM     21  CA  TRP A   5      26.243   4.907  13.077  0.00  0.00    +0.153 C 
BRANCH  21  23
ATOM     22  C   SER A   4      24.364   4.249  14.510  0.00  0.00    +0.243 C 
ATOM     23  N   TRP A   5      25.668   4.373  14.306  0.00  0.00    -0.297 N 
ATOM     24  H   TRP A   5      26.315   4.073  15.063  0.00  0.00    +0.150 HD
ATOM     25  O   SER A   4      23.516   4.561  13.678  0.00  0.00    -0.273 OA
BRANCH  22  26
ATOM     26  CA  SER A   4      23.941   3.703  15.865  0.00  0.00    +0.178 C 
BRANCH  26  28
ATOM     27  C   TYR A   3      25.388   1.786  16.375  0.00  0.00    +0.241 C 
ATOM     28  N   SER A   4      24.985   3.028  16.629  0.00  0.00    -0.295 N 
ATOM     29  H   SER A   4      25.437   3.544  17.411  0.00  0.00    +0.150 HD
ATOM     30  O   TYR A   3      24.933   1.100  15.452  0.00  0.00    -0.273 OA
BRANCH  27  31
ATOM     31  CA  TYR A   3      26.469   1.234  17.311  0.00  0.00    +0.153 C 
BRANCH  31  33
ATOM     32  C   GLN A   2      28.367   2.571  16.585  0.00  0.00    +0.241 C 
ATOM     33  N   TYR A   3      27.523   2.226  17.559  0.00  0.00    -0.297 N 
ATOM     34  H   TYR A   3      27.612   2.662  18.499  0.00  0.00    +0.150 HD
ATOM     35  O   GLN A   2      28.297   2.083  15.459  0.00  0.00    -0.273 OA
BRANCH  32  36
ATOM     36  CA  GLN A   2      29.444   3.625  16.891  0.00  0.00    +0.149 C 
BRANCH  36  38
ATOM     37  C   ILE A   1      27.949   5.488  17.340  0.00  0.00    +0.238 C 
ATOM     38  N   GLN A   2      28.959   4.714  17.727  0.00  0.00    -0.297 N 
ATOM     39  H   GLN A   2      29.412   4.890  18.646  0.00  0.00    +0.150 HD
ATOM     40  O   ILE A   1      27.357   5.338  16.273  0.00  0.00    -0.274 OA
BRANCH  37  41
ATOM     41  CA  ILE A   1      27.541   6.593  18.309  0.00  0.00    +0.145 C 
BRANCH  41  42
ATOM     42  CB  ILE A   1      28.623   7.692  18.318  0.00  0.00    +0.025 C 
ATOM     43  CG2 ILE A   1      29.002   8.057  16.888  0.00  0.00    +0.002 C 
BRANCH  42  44
ATOM     44  CG1 ILE A   1      28.108   8.915  19.084  0.00  0.00    +0.002 C 
ATOM     45  CD1 ILE A   1      29.137   9.995  19.293  0.00  0.00    +0.000 C 
ENDBRANCH  42  44
ENDBRANCH  41  42
BRANCH  41  46
ATOM     46  N   ILE A   1      27.362   6.013  19.628  0.00  0.00    -0.238 NA
ATOM     47  H   ILE A   1      28.032   6.244  20.389  0.00  0.00    +0.142 HD
ENDBRANCH  41  46
ENDBRANCH  37  41
ENDBRANCH  36  38
BRANCH  36  48
ATOM     48  CB  GLN A   2      30.676   2.976  17.535  0.00  0.00    +0.039 C 
BRANCH  48  49
ATOM     49  CG  GLN A   2      31.791   3.983  17.838  0.00  0.00    +0.087 C 
BRANCH  49  50
ATOM     50  CD  GLN A   2      33.126   3.343  18.221  0.00  0.00    +0.219 C 
ATOM     51  OE1 GLN A   2      33.174   2.233  18.749  0.00  0.00    -0.275 OA
ATOM     52  NE2 GLN A   2      34.217   4.065  17.976  0.00  0.00    -0.329 N 
ATOM     53 HE21 GLN A   2      35.154   3.695  18.233  0.00  0.00    +0.145 HD
ATOM     54 HE22 GLN A   2      34.132   5.000  17.528  0.00  0.00    +0.145 HD
ENDBRANCH  49  50
ENDBRANCH  48  49
ENDBRANCH  36  48
ENDBRANCH  32  36
ENDBRANCH  31  33
BRANCH  31  55
ATOM     55  CB  TYR A   3      25.768   0.795  18.605  0.00  0.00    +0.055 C 
BRANCH  55  56
ATOM     56  CG  TYR A   3      26.639   0.208  19.693  0.00  0.00    -0.020 A 
ATOM     57  CD2 TYR A   3      26.383   0.497  21.033  0.00  0.00    -0.001 A 
ATOM     58  CE2 TYR A   3      27.135  -0.073  22.053  0.00  0.00    +0.036 A 
ATOM     59  CZ  TYR A   3      28.161  -0.940  21.743  0.00  0.00    +0.134 A 
ATOM     60  CE1 TYR A   3      28.445  -1.248  20.420  0.00  0.00    +0.036 A 
ATOM     61  CD1 TYR A   3      27.682  -0.671  19.399  0.00  0.00    -0.001 A 
BRANCH  59  62
ATOM     62  OH  TYR A   3      28.895  -1.499  22.762  0.00  0.00    -0.506 OA
ATOM     63  HH  TYR A   3      29.588  -2.093  22.380  0.00  0.00    +0.292 HD
ENDBRANCH  59  62
ENDBRANCH  55  56
ENDBRANCH  31  55
ENDBRANCH  27  31
ENDBRANCH  26  28
BRANCH  26  64
ATOM     64  CB  SER A   4      23.368   4.860  16.683  0.00  0.00    +0.166 C 
BRANCH  64  65
ATOM     65  OG  SER A   4      22.685   4.378  17.821  0.00  0.00    -0.380 OA
ATOM     66  H   SER A   4      22.323   5.142  18.335  0.00  0.00    +0.211 HD
ENDBRANCH  64  65
ENDBRANCH  26  64
ENDBRANCH  22  26
ENDBRANCH  21  23
BRANCH  21  67
ATOM     67  CB  TRP A   5      27.740   4.550  13.055  0.00  0.00    +0.057 C 
BRANCH  67  68
ATOM     68  CG  TRP A   5      28.530   5.019  11.866  0.00  0.00    -0.002 A 
ATOM     69  CD2 TRP A   5      29.812   4.527  11.452  0.00  0.00    +0.013 A 
ATOM     70  CE3 TRP A   5      30.670   3.524  11.933  0.00  0.00    +0.001 A 
ATOM     71  CZ3 TRP A   5      31.880   3.302  11.273  0.00  0.00    +0.000 A 
ATOM     72  CH2 TRP A   5      32.244   4.065  10.147  0.00  0.00    +0.001 A 
ATOM     73  CZ2 TRP A   5      31.424   5.053   9.655  0.00  0.00    +0.017 A 
ATOM     74  CE2 TRP A   5      30.206   5.276  10.318  0.00  0.00    +0.056 A 
ATOM     75  NE1 TRP A   5      29.211   6.182  10.056  0.00  0.00    -0.352 N 
ATOM     76  HE1 TRP A   5      29.213   6.876   9.281  0.00  0.00    +0.166 HD
ATOM     77  CD1 TRP A   5      28.206   6.022  10.989  0.00  0.00    +0.068 A 
ENDBRANCH  67  68
ENDBRANCH  21  67
ENDBRANCH  17  21
ENDBRANCH  16  18
BRANCH  16  78
ATOM     78  CB  MET A   6      24.859   1.146  10.274  0.00  0.00    +0.041 C 
BRANCH  78  79
ATOM     79  CG  MET A   6      24.248   0.558   9.003  0.00  0.00    +0.060 C 
BRANCH  79  80
ATOM     80  SD  MET A   6      25.174   1.020   7.535  0.00  0.00    -0.139 S 
ATOM     81  CE  MET A   6      26.377  -0.260   7.517  0.00  0.00    +0.069 C 
ENDBRANCH  79  80
ENDBRANCH  78  79
ENDBRANCH  16  78
ENDBRANCH  12  16
ENDBRANCH  11  13
ENDBRANCH   7  11
ENDBRANCH   6   8
BRANCH   6  82
ATOM     82  CB  LEU A   8      22.558   7.748  12.298  0.00  0.00    +0.029 C 
BRANCH  82  83
ATOM     83  CG  LEU A   8      22.221   7.682  13.788  0.00  0.00    +0.002 C 
ATOM     84  CD2 LEU A   8      23.407   8.160  14.607  0.00  0.00    +0.000 C 
ATOM     85  CD1 LEU A   8      20.988   8.534  14.058  0.00  0.00    +0.000 C 
ENDBRANCH  82  83
ENDBRANCH   6  82
ENDBRANCH   2   6
ENDBRANCH   1   4
BRANCH   1  86
ATOM     86  C   MET A   9      21.998   6.617   6.999  0.00  0.00    +0.241 C 
ATOM     87  N   VAL A  10      21.465   5.434   7.297  0.00  0.00    -0.297 N 
ATOM     88  H   VAL A  10      21.842   4.903   8.108  0.00  0.00    +0.150 HD
ATOM     89  O   MET A   9      21.620   7.307   6.054  0.00  0.00    -0.273 OA
BRANCH  87  90
ATOM     90  CA  VAL A  10      20.370   4.858   6.525  0.00  0.00    +0.149 C 
BRANCH  90  91
ATOM     91  C   VAL A  10      19.154   5.782   6.540  0.00  0.00    +0.241 C 
ATOM     92  N   PHE A  11      18.799   6.257   7.731  0.00  0.00    -0.297 N 
ATOM     93  H   PHE A  11      19.367   5.999   8.563  0.00  0.00    +0.150 HD
ATOM     94  O   VAL A  10      18.550   6.048   5.500  0.00  0.00    -0.273 OA
BRANCH  92  95
ATOM     95  CA  PHE A  11      17.639   7.129   7.914  0.00  0.00    +0.153 C 
BRANCH  95  96
ATOM     96  C   PHE A  11      17.791   8.460   7.167  0.00  0.00    +0.241 C 
ATOM     97  N   ALA A  12      18.923   9.131   7.342  0.00  0.00    -0.297 N 
ATOM     98  H   ALA A  12      19.658   8.750   7.971  0.00  0.00    +0.150 HD
ATOM     99  O   PHE A  11      16.898   8.870   6.431  0.00  0.00    -0.273 OA
BRANCH  97 100
ATOM    100  CA  ALA A  12      19.140  10.397   6.657  0.00  0.00    +0.149 C 
ATOM    101  CB  ALA A  12      20.421  11.075   7.178  0.00  0.00    +0.031 C 
BRANCH 100 102
ATOM    102  C   ALA A  12      19.229  10.189   5.141  0.00  0.00    +0.241 C 
ATOM    103  N   MET A  13      19.806   9.067   4.712  0.00  0.00    -0.297 N 
ATOM    104  H   MET A  13      20.162   8.375   5.401  0.00  0.00    +0.150 HD
ATOM    105  O   ALA A  12      18.773  11.027   4.370  0.00  0.00    -0.273 OA
BRANCH 103 106
ATOM    106  CA  MET A  13      19.943   8.800   3.279  0.00  0.00    +0.149 C 
BRANCH 106 107
ATOM    107  C   MET A  13      18.564   8.625   2.652  0.00  0.00    +0.241 C 
ATOM    108  N   GLY A  14      17.685   7.902   3.346  0.00  0.00    -0.295 N 
ATOM    109  H   GLY A  14      17.967   7.479   4.253  0.00  0.00    +0.150 HD
ATOM    110  O   MET A  13      18.302   9.150   1.570  0.00  0.00    -0.273 OA
BRANCH 108 111
ATOM    111  CA  GLY A  14      16.337   7.700   2.845  0.00  0.00    +0.176 C 
BRANCH 111 112
ATOM    112  C   GLY A  14      15.617   9.032   2.716  0.00  0.00    +0.243 C 
ATOM    113  N   TRP A  15      15.835   9.921   3.680  0.00  0.00    -0.297 N 
ATOM    114  H   TRP A  15      16.463   9.678   4.473  0.00  0.00    +0.150 HD
ATOM    115  O   GLY A  14      14.878   9.258   1.762  0.00  0.00    -0.273 OA
BRANCH 113 116
ATOM    116  CA  TRP A  15      15.204  11.231   3.637  0.00  0.00    +0.153 C 
BRANCH 116 117
ATOM    117  C   TRP A  15      15.756  12.043   2.474  0.00  0.00    +0.241 C 
ATOM    118  N   ARG A  16      17.077  12.029   2.294  0.00  0.00    -0.297 N 
ATOM    119  H   ARG A  16      17.675  11.488   2.950  0.00  0.00    +0.150 HD
ATOM    120  O   TRP A  15      14.989  12.661   1.742  0.00  0.00    -0.273 OA
BRANCH 118 121
ATOM    121  CA  ARG A  16      17.700  12.759   1.192  0.00  0.00    +0.149 C 
BRANCH 121 122
ATOM    122  C   ARG A  16      17.211  12.211  -0.137  0.00  0.00    +0.241 C 
ATOM    123  N   SER A  17      17.019  10.895  -0.195  0.00  0.00    -0.296 N 
ATOM    124  H   SER A  17      17.212  10.316   0.647  0.00  0.00    +0.150 HD
ATOM    125  O   ARG A  16      17.018  12.967  -1.090  0.00  0.00    -0.273 OA
BRANCH 123 126
ATOM    126  CA  SER A  17      16.545  10.246  -1.410  0.00  0.00    +0.166 C 
BRANCH 126 127
ATOM    127  C   SER A  17      15.136  10.722  -1.737  0.00  0.00    +0.229 C 
ATOM    128  O   SER A  17      14.806  10.967  -2.898  0.00  0.00    -0.286 OA
ENDBRANCH 126 127
BRANCH 126 129
ATOM    129  CB  SER A  17      16.545   8.721  -1.246  0.00  0.00    +0.165 C 
BRANCH 129 130
ATOM    130  OG  SER A  17      17.865   8.204  -1.193  0.00  0.00    -0.380 OA
ATOM    131  H   SER A  17      18.344   8.603  -0.423  0.00  0.00    +0.211 HD
ENDBRANCH 129 130
ENDBRANCH 126 129
ENDBRANCH 123 126
ENDBRANCH 121 122
BRANCH 121 132
ATOM    132  CB  ARG A  16      19.231  12.649   1.232  0.00  0.00    +0.033 C 
BRANCH 132 133
ATOM    133  CG  ARG A  16      19.915  13.573   2.224  0.00  0.00    +0.045 C 
BRANCH 133 134
ATOM    134  CD  ARG A  16      21.418  13.664   1.928  0.00  0.00    +0.174 C 
BRANCH 134 135
ATOM    135  NE  ARG A  16      22.028  12.340   1.817  0.00  0.00    -0.265 N 
ATOM    136  CZ  ARG A  16      22.425  11.602   2.850  0.00  0.00    +0.342 C 
ATOM    137  NH2 ARG A  16      22.293  12.053   4.092  0.00  0.00    -0.292 N 
ATOM    138 HH21 ARG A  16      22.606  11.469   4.893  0.00  0.00    +0.255 HD
ATOM    139 HH22 ARG A  16      21.876  12.990   4.263  0.00  0.00    +0.255 HD
ATOM    140  NH1 ARG A  16      22.939  10.398   2.644  0.00  0.00    -0.292 N 
ATOM    141 HH11 ARG A  16      23.250   9.820   3.451  0.00  0.00    +0.255 HD
ATOM    142 HH12 ARG A  16      23.032  10.031   1.675  0.00  0.00    +0.255 HD
ATOM    143  HE  ARG A  16      22.161  11.947   0.863  0.00  0.00    +0.259 HD
ENDBRANCH 134 135
ENDBRANCH 133 134
ENDBRANCH 132 133
ENDBRANCH 121 132
ENDBRANCH 118 121
ENDBRANCH 116 117
BRANCH 116 144
ATOM    144  CB  TRP A  15      15.411  11.973   4.960  0.00  0.00    +0.057 C 
BRANCH 144 145
ATOM    145  CG  TRP A  15      14.900  13.391   4.957  0.00  0.00    -0.002 A 
ATOM    146  CD2 TRP A  15      13.543  13.821   5.150  0.00  0.00    +0.013 A 
ATOM    147  CE3 TRP A  15      12.334  13.149   5.369  0.00  0.00    +0.001 A 
ATOM    148  CZ3 TRP A  15      11.168  13.903   5.518  0.00  0.00    +0.000 A 
ATOM    149  CH2 TRP A  15      11.199  15.308   5.452  0.00  0.00    +0.001 A 
ATOM    150  CZ2 TRP A  15      12.372  15.988   5.238  0.00  0.00    +0.017 A 
ATOM    151  CE2 TRP A  15      13.539  15.232   5.087  0.00  0.00    +0.056 A 
ATOM    152  NE1 TRP A  15      14.828  15.635   4.862  0.00  0.00    -0.352 N 
ATOM    153  HE1 TRP A  15      15.145  16.621   4.766  0.00  0.00    +0.166 HD
ATOM    154  CD1 TRP A  15      15.638  14.523   4.784  0.00  0.00    +0.068 A 
ENDBRANCH 144 145
ENDBRANCH 116 144
ENDBRANCH 113 116
ENDBRANCH 111 112
ENDBRANCH 108 111
ENDBRANCH 106 107
BRANCH 106 155
ATOM    155  CB  MET A  13      20.809   7.554   3.033  0.00  0.00    +0.041 C 
BRANCH 155 156
ATOM    156  CG  MET A  13      21.212   7.331   1.564  0.00  0.00    +0.060 C 
BRANCH 156 157
ATOM    157  SD  MET A  13      19.915   6.560   0.574  0.00  0.00    -0.139 S 
ATOM    158  CE  MET A  13      20.301   4.813   0.782  0.00  0.00    +0.069 C 
ENDBRANCH 156 157
ENDBRANCH 155 156
ENDBRANCH 106 155
ENDBRANCH 103 106
ENDBRANCH 100 102
ENDBRANCH  97 100
ENDBRANCH  95  96
BRANCH  95 159
ATOM    159  CB  PHE A  11      17.413   7.371   9.413  0.00  0.00    +0.055 C 
BRANCH 159 160
ATOM    160  CG  PHE A  11      16.023   7.833   9.759  0.00  0.00    -0.020 A 
ATOM    161  CD2 PHE A  11      15.813   9.097  10.308  0.00  0.00    -0.004 A 
ATOM    162  CE2 PHE A  11      14.525   9.530  10.633  0.00  0.00    -0.000 A 
ATOM    163  CZ  PHE A  11      13.431   8.691  10.411  0.00  0.00    -0.000 A 
ATOM    164  CE1 PHE A  11      13.631   7.427   9.864  0.00  0.00    -0.000 A 
ATOM    165  CD1 PHE A  11      14.927   7.008   9.542  0.00  0.00    -0.004 A 
ENDBRANCH 159 160
ENDBRANCH  95 159
ENDBRANCH  92  95
ENDBRANCH  90  91
BRANCH  90 166
ATOM    166  CB  VAL A  10      19.914   3.483   7.098  0.00  0.00    +0.027 C 
ATOM    167  CG2 VAL A  10      20.958   2.410   6.821  0.00  0.00    +0.002 C 
ATOM    168  CG1 VAL A  10      18.590   3.076   6.470  0.00  0.00    +0.002 C 
ENDBRANCH  90 166
ENDBRANCH  87  90
ENDBRANCH   1  86
BRANCH   1 169
ATOM    169  CB  MET A   9      24.450   6.445   7.479  0.00  0.00    +0.041 C 
BRANCH 169 170
ATOM    170  CG  MET A   9      25.683   6.955   8.203  0.00  0.00    +0.060 C 
BRANCH 170 171
ATOM    171  SD  MET A   9      27.196   6.532   7.305  0.00  0.00    -0.139 S 
ATOM    172  CE  MET A   9      27.324   4.797   7.669  0.00  0.00    +0.069 C 
ENDBRANCH 170 171
ENDBRANCH 169 170
ENDBRANCH   1 169
TORSDOF 68
REMARK  Name = ../refined-set-2016/3b5r/3b5r_pocket.pdb
REMARK  283 active torsions:
REMARK  status: ('A' for Active; 'I' for Inactive)
REMARK    1  A    between atoms: _1  and  _3
REMARK    2  A    between atoms: _3  and  _4
REMARK    3  A    between atoms: _3  and  _6
REMARK    4  A    between atoms: _9  and  _11
REMARK    5  A    between atoms: _11  and  _12
REMARK    6  A    between atoms: _15  and  _17
REMARK    7  A    between atoms: _17  and  _18
REMARK    8  A    between atoms: _17  and  _20
REMARK    9  A    between atoms: _20  and  _21
REMARK   10  A    between atoms: _27  and  _29
REMARK   11  A    between atoms: _29  and  _30
REMARK   12  A    between atoms: _29  and  _32
REMARK   13  A    between atoms: _32  and  _33
REMARK   14  A    between atoms: _36  and  _38
REMARK   15  A    between atoms: _38  and  _39
REMARK   16  A    between atoms: _38  and  _41
REMARK   17  A    between atoms: _41  and  _42
REMARK   18  A    between atoms: _45  and  _47
REMARK   19  A    between atoms: _47  and  _48
REMARK   20  A    between atoms: _47  and  _50
REMARK   21  A    between atoms: _50  and  _51
REMARK   22  A    between atoms: _53  and  _55
REMARK   23  A    between atoms: _55  and  _56
REMARK   24  A    between atoms: _55  and  _58
REMARK   25  A    between atoms: _58  and  _59
REMARK   26  A    between atoms: _61  and  _63
REMARK   27  A    between atoms: _63  and  _64
REMARK   28  A    between atoms: _63  and  _66
REMARK   29  A    between atoms: _66  and  _67
REMARK   30  A    between atoms: _70  and  _72
REMARK   31  A    between atoms: _72  and  _73
REMARK   32  A    between atoms: _72  and  _75
REMARK   33  A    between atoms: _75  and  _76
REMARK   34  A    between atoms: _81  and  _83
REMARK   35  A    between atoms: _83  and  _84
REMARK   36  A    between atoms: _83  and  _86
REMARK   37  A    between atoms: _86  and  _87
REMARK   38  A    between atoms: _87  and  _88
REMARK   39  A    between atoms: _91  and  _93
REMARK   40  A    between atoms: _93  and  _94
REMARK   41  A    between atoms: _93  and  _96
REMARK   42  A    between atoms: _96  and  _97
REMARK   43  A    between atoms: _100  and  _102
REMARK   44  A    between atoms: _102  and  _103
REMARK   45  A    between atoms: _105  and  _107
REMARK   46  A    between atoms: _107  and  _108
REMARK   47  A    between atoms: _107  and  _110
REMARK   48  A    between atoms: _110  and  _111
REMARK   49  A    between atoms: _111  and  _112
REMARK   50  A    between atoms: _115  and  _117
REMARK   51  A    between atoms: _117  and  _118
REMARK   52  A    between atoms: _117  and  _120
REMARK   53  A    between atoms: _120  and  _121
REMARK   54  A    between atoms: _121  and  _122
REMARK   55  A    between atoms: _122  and  _123
REMARK   56  A    between atoms: _132  and  _134
REMARK   57  A    between atoms: _134  and  _135
REMARK   58  A    between atoms: _134  and  _137
REMARK   59  A    between atoms: _137  and  _138
REMARK   60  A    between atoms: _138  and  _139
REMARK   61  A    between atoms: _144  and  _146
REMARK   62  A    between atoms: _146  and  _147
REMARK   63  A    between atoms: _146  and  _149
REMARK   64  A    between atoms: _149  and  _150
REMARK   65  A    between atoms: _153  and  _155
REMARK   66  A    between atoms: _155  and  _156
REMARK   67  A    between atoms: _155  and  _158
REMARK   68  A    between atoms: _158  and  _159
REMARK   69  A    between atoms: _162  and  _164
REMARK   70  A    between atoms: _164  and  _165
REMARK   71  A    between atoms: _164  and  _167
REMARK   72  A    between atoms: _167  and  _168
REMARK   73  A    between atoms: _168  and  _169
REMARK   74  A    between atoms: _174  and  _176
REMARK   75  A    between atoms: _176  and  _177
REMARK   76  A    between atoms: _176  and  _179
REMARK   77  A    between atoms: _179  and  _180
REMARK   78  A    between atoms: _185  and  _186
REMARK   79  A    between atoms: _188  and  _190
REMARK   80  A    between atoms: _190  and  _191
REMARK   81  A    between atoms: _190  and  _193
REMARK   82  A    between atoms: _193  and  _194
REMARK   83  A    between atoms: _196  and  _198
REMARK   84  A    between atoms: _198  and  _199
REMARK   85  A    between atoms: _198  and  _201
REMARK   86  A    between atoms: _201  and  _202
REMARK   87  A    between atoms: _212  and  _214
REMARK   88  A    between atoms: _214  and  _215
REMARK   89  A    between atoms: _214  and  _217
REMARK   90  A    between atoms: _217  and  _218
REMARK   91  A    between atoms: _218  and  _219
REMARK   92  A    between atoms: _221  and  _223
REMARK   93  A    between atoms: _223  and  _224
REMARK   94  A    between atoms: _226  and  _228
REMARK   95  A    between atoms: _228  and  _229
REMARK   96  A    between atoms: _228  and  _231
REMARK   97  A    between atoms: _231  and  _232
REMARK   98  A    between atoms: _235  and  _237
REMARK   99  A    between atoms: _237  and  _238
REMARK  100  A    between atoms: _237  and  _240
REMARK  101  A    between atoms: _240  and  _241
REMARK  102  A    between atoms: _241  and  _242
REMARK  103  A    between atoms: _244  and  _246
REMARK  104  A    between atoms: _246  and  _247
REMARK  105  A    between atoms: _246  and  _249
REMARK  106  A    between atoms: _252  and  _254
REMARK  107  A    between atoms: _254  and  _255
REMARK  108  A    between atoms: _254  and  _257
REMARK  109  A    between atoms: _257  and  _258
REMARK  110  A    between atoms: _264  and  _266
REMARK  111  A    between atoms: _266  and  _267
REMARK  112  A    between atoms: _270  and  _272
REMARK  113  A    between atoms: _272  and  _273
REMARK  114  A    between atoms: _272  and  _275
REMARK  115  A    between atoms: _275  and  _276
REMARK  116  A    between atoms: _276  and  _277
REMARK  117  A    between atoms: _279  and  _281
REMARK  118  A    between atoms: _281  and  _282
REMARK  119  A    between atoms: _284  and  _286
REMARK  120  A    between atoms: _286  and  _287
REMARK  121  A    between atoms: _286  and  _289
REMARK  122  A    between atoms: _289  and  _290
REMARK  123  A    between atoms: _300  and  _302
REMARK  124  A    between atoms: _302  and  _303
REMARK  125  A    between atoms: _302  and  _305
REMARK  126  A    between atoms: _305  and  _306
REMARK  127  A    between atoms: _306  and  _307
REMARK  128  A    between atoms: _307  and  _308
REMARK  129  A    between atoms: _317  and  _319
REMARK  130  A    between atoms: _319  and  _320
REMARK  131  A    between atoms: _319  and  _322
REMARK  132  A    between atoms: _322  and  _323
REMARK  133  A    between atoms: _325  and  _327
REMARK  134  A    between atoms: _327  and  _328
REMARK  135  A    between atoms: _327  and  _330
REMARK  136  A    between atoms: _330  and  _331
REMARK  137  A    between atoms: _334  and  _336
REMARK  138  A    between atoms: _336  and  _337
REMARK  139  A    between atoms: _336  and  _339
REMARK  140  A    between atoms: _339  and  _340
REMARK  141  A    between atoms: _345  and  _346
REMARK  142  A    between atoms: _348  and  _350
REMARK  143  A    between atoms: _350  and  _351
REMARK  144  A    between atoms: _350  and  _353
REMARK  145  A    between atoms: _353  and  _354
REMARK  146  A    between atoms: _360  and  _362
REMARK  147  A    between atoms: _362  and  _363
REMARK  148  A    between atoms: _366  and  _368
REMARK  149  A    between atoms: _368  and  _369
REMARK  150  A    between atoms: _368  and  _371
REMARK  151  A    between atoms: _371  and  _372
REMARK  152  A    between atoms: _375  and  _377
REMARK  153  A    between atoms: _377  and  _378
REMARK  154  A    between atoms: _377  and  _380
REMARK  155  A    between atoms: _380  and  _381
REMARK  156  A    between atoms: _387  and  _389
REMARK  157  A    between atoms: _389  and  _390
REMARK  158  A    between atoms: _389  and  _392
REMARK  159  A    between atoms: _392  and  _393
REMARK  160  A    between atoms: _395  and  _397
REMARK  161  A    between atoms: _397  and  _398
REMARK  162  A    between atoms: _397  and  _400
REMARK  163  A    between atoms: _400  and  _401
REMARK  164  A    between atoms: _401  and  _402
REMARK  165  A    between atoms: _404  and  _406
REMARK  166  A    between atoms: _406  and  _407
REMARK  167  A    between atoms: _406  and  _409
REMARK  168  A    between atoms: _409  and  _410
REMARK  169  A    between atoms: _410  and  _411
REMARK  170  A    between atoms: _416  and  _418
REMARK  171  A    between atoms: _418  and  _419
REMARK  172  A    between atoms: _418  and  _421
REMARK  173  A    between atoms: _423  and  _425
REMARK  174  A    between atoms: _425  and  _426
REMARK  175  A    between atoms: _425  and  _428
REMARK  176  A    between atoms: _428  and  _429
REMARK  177  A    between atoms: _429  and  _430
REMARK  178  A    between atoms: _432  and  _434
REMARK  179  A    between atoms: _434  and  _435
REMARK  180  A    between atoms: _434  and  _437
REMARK  181  A    between atoms: _437  and  _438
REMARK  182  A    between atoms: _441  and  _443
REMARK  183  A    between atoms: _443  and  _444
REMARK  184  A    between atoms: _443  and  _446
REMARK  185  A    between atoms: _449  and  _451
REMARK  186  A    between atoms: _451  and  _452
REMARK  187  A    between atoms: _451  and  _454
REMARK  188  A    between atoms: _454  and  _455
REMARK  189  A    between atoms: _458  and  _460
REMARK  190  A    between atoms: _460  and  _461
REMARK  191  A    between atoms: _464  and  _466
REMARK  192  A    between atoms: _466  and  _467
REMARK  193  A    between atoms: _466  and  _469
REMARK  194  A    between atoms: _469  and  _470
REMARK  195  A    between atoms: _473  and  _475
REMARK  196  A    between atoms: _475  and  _476
REMARK  197  A    between atoms: _475  and  _478
REMARK  198  A    between atoms: _478  and  _479
REMARK  199  A    between atoms: _484  and  _486
REMARK  200  A    between atoms: _486  and  _487
REMARK  201  A    between atoms: _486  and  _489
REMARK  202  A    between atoms: _489  and  _490
REMARK  203  A    between atoms: _490  and  _491
REMARK  204  A    between atoms: _496  and  _498
REMARK  205  A    between atoms: _498  and  _499
REMARK  206  A    between atoms: _498  and  _501
REMARK  207  A    between atoms: _501  and  _502
REMARK  208  A    between atoms: _508  and  _510
REMARK  209  A    between atoms: _510  and  _511
REMARK  210  A    between atoms: _510  and  _513
REMARK  211  A    between atoms: _513  and  _514
REMARK  212  A    between atoms: _517  and  _519
REMARK  213  A    between atoms: _519  and  _520
REMARK  214  A    between atoms: _519  and  _522
REMARK  215  A    between atoms: _522  and  _523
REMARK  216  A    between atoms: _529  and  _531
REMARK  217  A    between atoms: _531  and  _532
REMARK  218  A    between atoms: _531  and  _534
REMARK  219  A    between atoms: _534  and  _535
REMARK  220  A    between atoms: _538  and  _540
REMARK  221  A    between atoms: _540  and  _541
REMARK  222  A    between atoms: _540  and  _543
REMARK  223  A    between atoms: _543  and  _544
REMARK  224  A    between atoms: _547  and  _549
REMARK  225  A    between atoms: _549  and  _550
REMARK  226  A    between atoms: _549  and  _552
REMARK  227  A    between atoms: _552  and  _553
REMARK  228  A    between atoms: _556  and  _558
REMARK  229  A    between atoms: _558  and  _559
REMARK  230  A    between atoms: _558  and  _561
REMARK  231  A    between atoms: _564  and  _566
REMARK  232  A    between atoms: _566  and  _567
REMARK  233  A    between atoms: _566  and  _569
REMARK  234  A    between atoms: _569  and  _570
REMARK  235  A    between atoms: _573  and  _575
REMARK  236  A    between atoms: _575  and  _576
REMARK  237  A    between atoms: _575  and  _578
REMARK  238  A    between atoms: _578  and  _579
REMARK  239  A    between atoms: _586  and  _587
REMARK  240  A    between atoms: _592  and  _594
REMARK  241  A    between atoms: _594  and  _595
REMARK  242  A    between atoms: _594  and  _597
REMARK  243  A    between atoms: _597  and  _598
REMARK  244  A    between atoms: _598  and  _599
REMARK  245  A    between atoms: _601  and  _603
REMARK  246  A    between atoms: _603  and  _604
REMARK  247  A    between atoms: _603  and  _606
REMARK  248  A    between atoms: _606  and  _607
REMARK  249  A    between atoms: _607  and  _608
REMARK  250  A    between atoms: _610  and  _612
REMARK  251  A    between atoms: _612  and  _613
REMARK  252  A    between atoms: _616  and  _618
REMARK  253  A    between atoms: _618  and  _619
REMARK  254  A    between atoms: _618  and  _621
REMARK  255  A    between atoms: _621  and  _622
REMARK  256  A    between atoms: _625  and  _627
REMARK  257  A    between atoms: _627  and  _628
REMARK  258  A    between atoms: _627  and  _630
REMARK  259  A    between atoms: _630  and  _631
REMARK  260  A    between atoms: _634  and  _636
REMARK  261  A    between atoms: _636  and  _637
REMARK  262  A    between atoms: _636  and  _639
REMARK  263  A    between atoms: _639  and  _640
REMARK  264  A    between atoms: _642  and  _644
REMARK  265  A    between atoms: _644  and  _645
REMARK  266  A    between atoms: _644  and  _647
REMARK  267  A    between atoms: _650  and  _652
REMARK  268  A    between atoms: _652  and  _653
REMARK  269  A    between atoms: _652  and  _655
REMARK  270  A    between atoms: _655  and  _656
REMARK  271  A    between atoms: _656  and  _657
REMARK  272  A    between atoms: _662  and  _664
REMARK  273  A    between atoms: _664  and  _665
REMARK  274  A    between atoms: _664  and  _667
REMARK  275  A    between atoms: _671  and  _672
REMARK  276  A    between atoms: _677  and  _679
REMARK  277  A    between atoms: _679  and  _680
REMARK  278  A    between atoms: _679  and  _682
REMARK  279  A    between atoms: _682  and  _683
REMARK  280  A    between atoms: _686  and  _688
REMARK  281  A    between atoms: _688  and  _689
REMARK  282  A    between atoms: _688  and  _691
REMARK  283  A    between atoms: _691  and  _692
REMARK                            x       y       z     vdW  Elec       q    Type
REMARK                         _______ _______ _______ _____ _____    ______ ____
ROOT
ATOM      1  CA  TYR A   2      20.973   9.675  -2.820  0.00  0.00    +0.153 C 
ENDROOT
BRANCH   1   3
ATOM      2  C   LEU A   1      20.363   7.405  -3.547  0.00  0.00    +0.238 C 
ATOM      3  N   TYR A   2      20.084   8.523  -2.886  0.00  0.00    -0.297 N 
ATOM      4  H   TYR A   2      19.175   8.579  -2.385  0.00  0.00    +0.150 HD
ATOM      5  O   LEU A   1      21.410   7.224  -4.172  0.00  0.00    -0.274 OA
BRANCH   2   6
ATOM      6  CA  LEU A   1      19.270   6.338  -3.505  0.00  0.00    +0.145 C 
BRANCH   6   7
ATOM      7  N   LEU A   1      18.775   6.171  -4.860  0.00  0.00    -0.238 NA
ATOM      8  H   LEU A   1      19.273   5.536  -5.516  0.00  0.00    +0.142 HD
ENDBRANCH   6   7
BRANCH   6   9
ATOM      9  CB  LEU A   1      19.812   5.009  -2.970  0.00  0.00    +0.026 C 
BRANCH   9  10
ATOM     10  CG  LEU A   1      18.786   3.873  -2.931  0.00  0.00    +0.002 C 
ATOM     11  CD2 LEU A   1      17.688   4.196  -1.923  0.00  0.00    +0.000 C 
ATOM     12  CD1 LEU A   1      19.478   2.571  -2.588  0.00  0.00    +0.000 C 
ENDBRANCH   9  10
ENDBRANCH   6   9
ENDBRANCH   2   6
ENDBRANCH   1   3
BRANCH   1  13
ATOM     13  C   TYR A   2      21.981   9.534  -1.673  0.00  0.00    +0.241 C 
ATOM     14  O   TYR A   2      21.865  10.198  -0.643  0.00  0.00    -0.273 OA
ATOM     15  N   PHE A   3      22.966   8.661  -1.841  0.00  0.00    -0.297 N 
ATOM     16  H   PHE A   3      23.023   8.104  -2.718  0.00  0.00    +0.150 HD
BRANCH  15  17
ATOM     17  CA  PHE A   3      23.970   8.481  -0.797  0.00  0.00    +0.153 C 
BRANCH  17  18
ATOM     18  C   PHE A   3      24.695   9.803  -0.593  0.00  0.00    +0.241 C 
ATOM     19  O   PHE A   3      24.964  10.220   0.536  0.00  0.00    -0.273 OA
ATOM     20  N   ALA A   4      25.000  10.459  -1.704  0.00  0.00    -0.298 N 
ATOM     21  H   ALA A   4      24.748  10.034  -2.619  0.00  0.00    +0.150 HD
BRANCH  20  22
ATOM     22  CA  ALA A   4      25.672  11.749  -1.696  0.00  0.00    +0.137 C 
ATOM     23  CB  ALA A   4      27.154  11.579  -1.403  0.00  0.00    +0.030 C 
BRANCH  22  24
ATOM     24  C   ALA A   4      25.477  12.328  -3.089  0.00  0.00    +0.227 C 
ATOM     25  O   ALA A   4      25.178  11.597  -4.029  0.00  0.00    -0.286 OA
ENDBRANCH  22  24
ENDBRANCH  20  22
ENDBRANCH  17  18
BRANCH  17  26
ATOM     26  CB  PHE A   3      24.971   7.397  -1.189  0.00  0.00    +0.055 C 
BRANCH  26  27
ATOM     27  CG  PHE A   3      24.420   6.003  -1.123  0.00  0.00    -0.020 A 
ATOM     28  CD2 PHE A   3      24.401   5.309   0.083  0.00  0.00    -0.004 A 
ATOM     29  CE2 PHE A   3      23.928   3.991   0.146  0.00  0.00    -0.000 A 
ATOM     30  CZ  PHE A   3      23.469   3.367  -1.003  0.00  0.00    -0.000 A 
ATOM     31  CE1 PHE A   3      23.478   4.057  -2.214  0.00  0.00    -0.000 A 
ATOM     32  CD1 PHE A   3      23.950   5.368  -2.268  0.00  0.00    -0.004 A 
ENDBRANCH  26  27
ENDBRANCH  17  26
ENDBRANCH  15  17
ENDBRANCH   1  13
BRANCH   1  33
ATOM     33  CB  TYR A   2      20.120  10.931  -2.615  0.00  0.00    +0.055 C 
BRANCH  33  34
ATOM     34  CG  TYR A   2      20.744  12.233  -3.054  0.00  0.00    -0.020 A 
ATOM     35  CD2 TYR A   2      21.370  13.070  -2.131  0.00  0.00    -0.001 A 
ATOM     36  CE2 TYR A   2      21.900  14.295  -2.514  0.00  0.00    +0.036 A 
ATOM     37  CZ  TYR A   2      21.812  14.698  -3.834  0.00  0.00    +0.134 A 
ATOM     38  CE1 TYR A   2      21.201  13.889  -4.778  0.00  0.00    +0.036 A 
ATOM     39  CD1 TYR A   2      20.670  12.655  -4.382  0.00  0.00    -0.001 A 
BRANCH  37  40
ATOM     40  OH  TYR A   2      22.338  15.914  -4.198  0.00  0.00    -0.506 OA
ATOM     41  HH  TYR A   2      21.887  16.633  -3.689  0.00  0.00    +0.292 HD
ENDBRANCH  37  40
ENDBRANCH  33  34
ENDBRANCH   1  33
TORSDOF 15
REMARK  Name = ../refined-set-2016/3b5r/3b5r_pocket.pdb
REMARK  283 active torsions:
REMARK  status: ('A' for Active; 'I' for Inactive)
REMARK    1  A    between atoms: _1  and  _3
REMARK    2  A    between atoms: _3  and  _4
REMARK    3  A    between atoms: _3  and  _6
REMARK    4  A    between atoms: _9  and  _11
REMARK    5  A    between atoms: _11  and  _12
REMARK    6  A    between atoms: _15  and  _17
REMARK    7  A    between atoms: _17  and  _18
REMARK    8  A    between atoms: _17  and  _20
REMARK    9  A    between atoms: _20  and  _21
REMARK   10  A    between atoms: _27  and  _29
REMARK   11  A    between atoms: _29  and  _30
REMARK   12  A    between atoms: _29  and  _32
REMARK   13  A    between atoms: _32  and  _33
REMARK   14  A    between atoms: _36  and  _38
REMARK   15  A    between atoms: _38  and  _39
REMARK   16  A    between atoms: _38  and  _41
REMARK   17  A    between atoms: _41  and  _42
REMARK   18  A    between atoms: _45  and  _47
REMARK   19  A    between atoms: _47  and  _48
REMARK   20  A    between atoms: _47  and  _50
REMARK   21  A    between atoms: _50  and  _51
REMARK   22  A    between atoms: _53  and  _55
REMARK   23  A    between atoms: _55  and  _56
REMARK   24  A    between atoms: _55  and  _58
REMARK   25  A    between atoms: _58  and  _59
REMARK   26  A    between atoms: _61  and  _63
REMARK   27  A    between atoms: _63  and  _64
REMARK   28  A    between atoms: _63  and  _66
REMARK   29  A    between atoms: _66  and  _67
REMARK   30  A    between atoms: _70  and  _72
REMARK   31  A    between atoms: _72  and  _73
REMARK   32  A    between atoms: _72  and  _75
REMARK   33  A    between atoms: _75  and  _76
REMARK   34  A    between atoms: _81  and  _83
REMARK   35  A    between atoms: _83  and  _84
REMARK   36  A    between atoms: _83  and  _86
REMARK   37  A    between atoms: _86  and  _87
REMARK   38  A    between atoms: _87  and  _88
REMARK   39  A    between atoms: _91  and  _93
REMARK   40  A    between atoms: _93  and  _94
REMARK   41  A    between atoms: _93  and  _96
REMARK   42  A    between atoms: _96  and  _97
REMARK   43  A    between atoms: _100  and  _102
REMARK   44  A    between atoms: _102  and  _103
REMARK   45  A    between atoms: _105  and  _107
REMARK   46  A    between atoms: _107  and  _108
REMARK   47  A    between atoms: _107  and  _110
REMARK   48  A    between atoms: _110  and  _111
REMARK   49  A    between atoms: _111  and  _112
REMARK   50  A    between atoms: _115  and  _117
REMARK   51  A    between atoms: _117  and  _118
REMARK   52  A    between atoms: _117  and  _120
REMARK   53  A    between atoms: _120  and  _121
REMARK   54  A    between atoms: _121  and  _122
REMARK   55  A    between atoms: _122  and  _123
REMARK   56  A    between atoms: _132  and  _134
REMARK   57  A    between atoms: _134  and  _135
REMARK   58  A    between atoms: _134  and  _137
REMARK   59  A    between atoms: _137  and  _138
REMARK   60  A    between atoms: _138  and  _139
REMARK   61  A    between atoms: _144  and  _146
REMARK   62  A    between atoms: _146  and  _147
REMARK   63  A    between atoms: _146  and  _149
REMARK   64  A    between atoms: _149  and  _150
REMARK   65  A    between atoms: _153  and  _155
REMARK   66  A    between atoms: _155  and  _156
REMARK   67  A    between atoms: _155  and  _158
REMARK   68  A    between atoms: _158  and  _159
REMARK   69  A    between atoms: _162  and  _164
REMARK   70  A    between atoms: _164  and  _165
REMARK   71  A    between atoms: _164  and  _167
REMARK   72  A    between atoms: _167  and  _168
REMARK   73  A    between atoms: _168  and  _169
REMARK   74  A    between atoms: _174  and  _176
REMARK   75  A    between atoms: _176  and  _177
REMARK   76  A    between atoms: _176  and  _179
REMARK   77  A    between atoms: _179  and  _180
REMARK   78  A    between atoms: _185  and  _186
REMARK   79  A    between atoms: _188  and  _190
REMARK   80  A    between atoms: _190  and  _191
REMARK   81  A    between atoms: _190  and  _193
REMARK   82  A    between atoms: _193  and  _194
REMARK   83  A    between atoms: _196  and  _198
REMARK   84  A    between atoms: _198  and  _199
REMARK   85  A    between atoms: _198  and  _201
REMARK   86  A    between atoms: _201  and  _202
REMARK   87  A    between atoms: _212  and  _214
REMARK   88  A    between atoms: _214  and  _215
REMARK   89  A    between atoms: _214  and  _217
REMARK   90  A    between atoms: _217  and  _218
REMARK   91  A    between atoms: _218  and  _219
REMARK   92  A    between atoms: _221  and  _223
REMARK   93  A    between atoms: _223  and  _224
REMARK   94  A    between atoms: _226  and  _228
REMARK   95  A    between atoms: _228  and  _229
REMARK   96  A    between atoms: _228  and  _231
REMARK   97  A    between atoms: _231  and  _232
REMARK   98  A    between atoms: _235  and  _237
REMARK   99  A    between atoms: _237  and  _238
REMARK  100  A    between atoms: _237  and  _240
REMARK  101  A    between atoms: _240  and  _241
REMARK  102  A    between atoms: _241  and  _242
REMARK  103  A    between atoms: _244  and  _246
REMARK  104  A    between atoms: _246  and  _247
REMARK  105  A    between atoms: _246  and  _249
REMARK  106  A    between atoms: _252  and  _254
REMARK  107  A    between atoms: _254  and  _255
REMARK  108  A    between atoms: _254  and  _257
REMARK  109  A    between atoms: _257  and  _258
REMARK  110  A    between atoms: _264  and  _266
REMARK  111  A    between atoms: _266  and  _267
REMARK  112  A    between atoms: _270  and  _272
REMARK  113  A    between atoms: _272  and  _273
REMARK  114  A    between atoms: _272  and  _275
REMARK  115  A    between atoms: _275  and  _276
REMARK  116  A    between atoms: _276  and  _277
REMARK  117  A    between atoms: _279  and  _281
REMARK  118  A    between atoms: _281  and  _282
REMARK  119  A    between atoms: _284  and  _286
REMARK  120  A    between atoms: _286  and  _287
REMARK  121  A    between atoms: _286  and  _289
REMARK  122  A    between atoms: _289  and  _290
REMARK  123  A    between atoms: _300  and  _302
REMARK  124  A    between atoms: _302  and  _303
REMARK  125  A    between atoms: _302  and  _305
REMARK  126  A    between atoms: _305  and  _306
REMARK  127  A    between atoms: _306  and  _307
REMARK  128  A    between atoms: _307  and  _308
REMARK  129  A    between atoms: _317  and  _319
REMARK  130  A    between atoms: _319  and  _320
REMARK  131  A    between atoms: _319  and  _322
REMARK  132  A    between atoms: _322  and  _323
REMARK  133  A    between atoms: _325  and  _327
REMARK  134  A    between atoms: _327  and  _328
REMARK  135  A    between atoms: _327  and  _330
REMARK  136  A    between atoms: _330  and  _331
REMARK  137  A    between atoms: _334  and  _336
REMARK  138  A    between atoms: _336  and  _337
REMARK  139  A    between atoms: _336  and  _339
REMARK  140  A    between atoms: _339  and  _340
REMARK  141  A    between atoms: _345  and  _346
REMARK  142  A    between atoms: _348  and  _350
REMARK  143  A    between atoms: _350  and  _351
REMARK  144  A    between atoms: _350  and  _353
REMARK  145  A    between atoms: _353  and  _354
REMARK  146  A    between atoms: _360  and  _362
REMARK  147  A    between atoms: _362  and  _363
REMARK  148  A    between atoms: _366  and  _368
REMARK  149  A    between atoms: _368  and  _369
REMARK  150  A    between atoms: _368  and  _371
REMARK  151  A    between atoms: _371  and  _372
REMARK  152  A    between atoms: _375  and  _377
REMARK  153  A    between atoms: _377  and  _378
REMARK  154  A    between atoms: _377  and  _380
REMARK  155  A    between atoms: _380  and  _381
REMARK  156  A    between atoms: _387  and  _389
REMARK  157  A    between atoms: _389  and  _390
REMARK  158  A    between atoms: _389  and  _392
REMARK  159  A    between atoms: _392  and  _393
REMARK  160  A    between atoms: _395  and  _397
REMARK  161  A    between atoms: _397  and  _398
REMARK  162  A    between atoms: _397  and  _400
REMARK  163  A    between atoms: _400  and  _401
REMARK  164  A    between atoms: _401  and  _402
REMARK  165  A    between atoms: _404  and  _406
REMARK  166  A    between atoms: _406  and  _407
REMARK  167  A    between atoms: _406  and  _409
REMARK  168  A    between atoms: _409  and  _410
REMARK  169  A    between atoms: _410  and  _411
REMARK  170  A    between atoms: _416  and  _418
REMARK  171  A    between atoms: _418  and  _419
REMARK  172  A    between atoms: _418  and  _421
REMARK  173  A    between atoms: _423  and  _425
REMARK  174  A    between atoms: _425  and  _426
REMARK  175  A    between atoms: _425  and  _428
REMARK  176  A    between atoms: _428  and  _429
REMARK  177  A    between atoms: _429  and  _430
REMARK  178  A    between atoms: _432  and  _434
REMARK  179  A    between atoms: _434  and  _435
REMARK  180  A    between atoms: _434  and  _437
REMARK  181  A    between atoms: _437  and  _438
REMARK  182  A    between atoms: _441  and  _443
REMARK  183  A    between atoms: _443  and  _444
REMARK  184  A    between atoms: _443  and  _446
REMARK  185  A    between atoms: _449  and  _451
REMARK  186  A    between atoms: _451  and  _452
REMARK  187  A    between atoms: _451  and  _454
REMARK  188  A    between atoms: _454  and  _455
REMARK  189  A    between atoms: _458  and  _460
REMARK  190  A    between atoms: _460  and  _461
REMARK  191  A    between atoms: _464  and  _466
REMARK  192  A    between atoms: _466  and  _467
REMARK  193  A    between atoms: _466  and  _469
REMARK  194  A    between atoms: _469  and  _470
REMARK  195  A    between atoms: _473  and  _475
REMARK  196  A    between atoms: _475  and  _476
REMARK  197  A    between atoms: _475  and  _478
REMARK  198  A    between atoms: _478  and  _479
REMARK  199  A    between atoms: _484  and  _486
REMARK  200  A    between atoms: _486  and  _487
REMARK  201  A    between atoms: _486  and  _489
REMARK  202  A    between atoms: _489  and  _490
REMARK  203  A    between atoms: _490  and  _491
REMARK  204  A    between atoms: _496  and  _498
REMARK  205  A    between atoms: _498  and  _499
REMARK  206  A    between atoms: _498  and  _501
REMARK  207  A    between atoms: _501  and  _502
REMARK  208  A    between atoms: _508  and  _510
REMARK  209  A    between atoms: _510  and  _511
REMARK  210  A    between atoms: _510  and  _513
REMARK  211  A    between atoms: _513  and  _514
REMARK  212  A    between atoms: _517  and  _519
REMARK  213  A    between atoms: _519  and  _520
REMARK  214  A    between atoms: _519  and  _522
REMARK  215  A    between atoms: _522  and  _523
REMARK  216  A    between atoms: _529  and  _531
REMARK  217  A    between atoms: _531  and  _532
REMARK  218  A    between atoms: _531  and  _534
REMARK  219  A    between atoms: _534  and  _535
REMARK  220  A    between atoms: _538  and  _540
REMARK  221  A    between atoms: _540  and  _541
REMARK  222  A    between atoms: _540  and  _543
REMARK  223  A    between atoms: _543  and  _544
REMARK  224  A    between atoms: _547  and  _549
REMARK  225  A    between atoms: _549  and  _550
REMARK  226  A    between atoms: _549  and  _552
REMARK  227  A    between atoms: _552  and  _553
REMARK  228  A    between atoms: _556  and  _558
REMARK  229  A    between atoms: _558  and  _559
REMARK  230  A    between atoms: _558  and  _561
REMARK  231  A    between atoms: _564  and  _566
REMARK  232  A    between atoms: _566  and  _567
REMARK  233  A    between atoms: _566  and  _569
REMARK  234  A    between atoms: _569  and  _570
REMARK  235  A    between atoms: _573  and  _575
REMARK  236  A    between atoms: _575  and  _576
REMARK  237  A    between atoms: _575  and  _578
REMARK  238  A    between atoms: _578  and  _579
REMARK  239  A    between atoms: _586  and  _587
REMARK  240  A    between atoms: _592  and  _594
REMARK  241  A    between atoms: _594  and  _595
REMARK  242  A    between atoms: _594  and  _597
REMARK  243  A    between atoms: _597  and  _598
REMARK  244  A    between atoms: _598  and  _599
REMARK  245  A    between atoms: _601  and  _603
REMARK  246  A    between atoms: _603  and  _604
REMARK  247  A    between atoms: _603  and  _606
REMARK  248  A    between atoms: _606  and  _607
REMARK  249  A    between atoms: _607  and  _608
REMARK  250  A    between atoms: _610  and  _612
REMARK  251  A    between atoms: _612  and  _613
REMARK  252  A    between atoms: _616  and  _618
REMARK  253  A    between atoms: _618  and  _619
REMARK  254  A    between atoms: _618  and  _621
REMARK  255  A    between atoms: _621  and  _622
REMARK  256  A    between atoms: _625  and  _627
REMARK  257  A    between atoms: _627  and  _628
REMARK  258  A    between atoms: _627  and  _630
REMARK  259  A    between atoms: _630  and  _631
REMARK  260  A    between atoms: _634  and  _636
REMARK  261  A    between atoms: _636  and  _637
REMARK  262  A    between atoms: _636  and  _639
REMARK  263  A    between atoms: _639  and  _640
REMARK  264  A    between atoms: _642  and  _644
REMARK  265  A    between atoms: _644  and  _645
REMARK  266  A    between atoms: _644  and  _647
REMARK  267  A    between atoms: _650  and  _652
REMARK  268  A    between atoms: _652  and  _653
REMARK  269  A    between atoms: _652  and  _655
REMARK  270  A    between atoms: _655  and  _656
REMARK  271  A    between atoms: _656  and  _657
REMARK  272  A    between atoms: _662  and  _664
REMARK  273  A    between atoms: _664  and  _665
REMARK  274  A    between atoms: _664  and  _667
REMARK  275  A    between atoms: _671  and  _672
REMARK  276  A    between atoms: _677  and  _679
REMARK  277  A    between atoms: _679  and  _680
REMARK  278  A    between atoms: _679  and  _682
REMARK  279  A    between atoms: _682  and  _683
REMARK  280  A    between atoms: _686  and  _688
REMARK  281  A    between atoms: _688  and  _689
REMARK  282  A    between atoms: _688  and  _691
REMARK  283  A    between atoms: _691  and  _692
REMARK                            x       y       z     vdW  Elec       q    Type
REMARK                         _______ _______ _______ _____ _____    ______ ____
ROOT
ATOM      1  CA  LEU A   1      27.193   8.962  -5.245  0.00  0.00    +0.133 C 
ENDROOT
BRANCH   1   2
ATOM      2  N   LEU A   1      27.323  10.404  -5.416  0.00  0.00    -0.239 NA
ATOM      3  H   LEU A   1      26.584  11.032  -5.041  0.00  0.00    +0.142 HD
ENDBRANCH   1   2
BRANCH   1   4
ATOM      4  C   LEU A   1      25.708   8.626  -5.174  0.00  0.00    +0.224 C 
ATOM      5  O   LEU A   1      25.163   8.383  -4.103  0.00  0.00    -0.287 OA
ENDBRANCH   1   4
BRANCH   1   6
ATOM      6  CB  LEU A   1      27.901   8.484  -3.970  0.00  0.00    +0.025 C 
BRANCH   6   7
ATOM      7  CG  LEU A   1      28.030   6.955  -3.873  0.00  0.00    +0.002 C 
ATOM      8  CD2 LEU A   1      28.634   6.567  -2.527  0.00  0.00    +0.000 C 
ATOM      9  CD1 LEU A   1      28.896   6.439  -5.036  0.00  0.00    +0.000 C 
ENDBRANCH   6   7
ENDBRANCH   1   6
TORSDOF 4
REMARK  Name = ../refined-set-2016/3b5r/3b5r_pocket.pdb
REMARK  283 active torsions:
REMARK  status: ('A' for Active; 'I' for Inactive)
REMARK    1  A    between atoms: _1  and  _3
REMARK    2  A    between atoms: _3  and  _4
REMARK    3  A    between atoms: _3  and  _6
REMARK    4  A    between atoms: _9  and  _11
REMARK    5  A    between atoms: _11  and  _12
REMARK    6  A    between atoms: _15  and  _17
REMARK    7  A    between atoms: _17  and  _18
REMARK    8  A    between atoms: _17  and  _20
REMARK    9  A    between atoms: _20  and  _21
REMARK   10  A    between atoms: _27  and  _29
REMARK   11  A    between atoms: _29  and  _30
REMARK   12  A    between atoms: _29  and  _32
REMARK   13  A    between atoms: _32  and  _33
REMARK   14  A    between atoms: _36  and  _38
REMARK   15  A    between atoms: _38  and  _39
REMARK   16  A    between atoms: _38  and  _41
REMARK   17  A    between atoms: _41  and  _42
REMARK   18  A    between atoms: _45  and  _47
REMARK   19  A    between atoms: _47  and  _48
REMARK   20  A    between atoms: _47  and  _50
REMARK   21  A    between atoms: _50  and  _51
REMARK   22  A    between atoms: _53  and  _55
REMARK   23  A    between atoms: _55  and  _56
REMARK   24  A    between atoms: _55  and  _58
REMARK   25  A    between atoms: _58  and  _59
REMARK   26  A    between atoms: _61  and  _63
REMARK   27  A    between atoms: _63  and  _64
REMARK   28  A    between atoms: _63  and  _66
REMARK   29  A    between atoms: _66  and  _67
REMARK   30  A    between atoms: _70  and  _72
REMARK   31  A    between atoms: _72  and  _73
REMARK   32  A    between atoms: _72  and  _75
REMARK   33  A    between atoms: _75  and  _76
REMARK   34  A    between atoms: _81  and  _83
REMARK   35  A    between atoms: _83  and  _84
REMARK   36  A    between atoms: _83  and  _86
REMARK   37  A    between atoms: _86  and  _87
REMARK   38  A    between atoms: _87  and  _88
REMARK   39  A    between atoms: _91  and  _93
REMARK   40  A    between atoms: _93  and  _94
REMARK   41  A    between atoms: _93  and  _96
REMARK   42  A    between atoms: _96  and  _97
REMARK   43  A    between atoms: _100  and  _102
REMARK   44  A    between atoms: _102  and  _103
REMARK   45  A    between atoms: _105  and  _107
REMARK   46  A    between atoms: _107  and  _108
REMARK   47  A    between atoms: _107  and  _110
REMARK   48  A    between atoms: _110  and  _111
REMARK   49  A    between atoms: _111  and  _112
REMARK   50  A    between atoms: _115  and  _117
REMARK   51  A    between atoms: _117  and  _118
REMARK   52  A    between atoms: _117  and  _120
REMARK   53  A    between atoms: _120  and  _121
REMARK   54  A    between atoms: _121  and  _122
REMARK   55  A    between atoms: _122  and  _123
REMARK   56  A    between atoms: _132  and  _134
REMARK   57  A    between atoms: _134  and  _135
REMARK   58  A    between atoms: _134  and  _137
REMARK   59  A    between atoms: _137  and  _138
REMARK   60  A    between atoms: _138  and  _139
REMARK   61  A    between atoms: _144  and  _146
REMARK   62  A    between atoms: _146  and  _147
REMARK   63  A    between atoms: _146  and  _149
REMARK   64  A    between atoms: _149  and  _150
REMARK   65  A    between atoms: _153  and  _155
REMARK   66  A    between atoms: _155  and  _156
REMARK   67  A    between atoms: _155  and  _158
REMARK   68  A    between atoms: _158  and  _159
REMARK   69  A    between atoms: _162  and  _164
REMARK   70  A    between atoms: _164  and  _165
REMARK   71  A    between atoms: _164  and  _167
REMARK   72  A    between atoms: _167  and  _168
REMARK   73  A    between atoms: _168  and  _169
REMARK   74  A    between atoms: _174  and  _176
REMARK   75  A    between atoms: _176  and  _177
REMARK   76  A    between atoms: _176  and  _179
REMARK   77  A    between atoms: _179  and  _180
REMARK   78  A    between atoms: _185  and  _186
REMARK   79  A    between atoms: _188  and  _190
REMARK   80  A    between atoms: _190  and  _191
REMARK   81  A    between atoms: _190  and  _193
REMARK   82  A    between atoms: _193  and  _194
REMARK   83  A    between atoms: _196  and  _198
REMARK   84  A    between atoms: _198  and  _199
REMARK   85  A    between atoms: _198  and  _201
REMARK   86  A    between atoms: _201  and  _202
REMARK   87  A    between atoms: _212  and  _214
REMARK   88  A    between atoms: _214  and  _215
REMARK   89  A    between atoms: _214  and  _217
REMARK   90  A    between atoms: _217  and  _218
REMARK   91  A    between atoms: _218  and  _219
REMARK   92  A    between atoms: _221  and  _223
REMARK   93  A    between atoms: _223  and  _224
REMARK   94  A    between atoms: _226  and  _228
REMARK   95  A    between atoms: _228  and  _229
REMARK   96  A    between atoms: _228  and  _231
REMARK   97  A    between atoms: _231  and  _232
REMARK   98  A    between atoms: _235  and  _237
REMARK   99  A    between atoms: _237  and  _238
REMARK  100  A    between atoms: _237  and  _240
REMARK  101  A    between atoms: _240  and  _241
REMARK  102  A    between atoms: _241  and  _242
REMARK  103  A    between atoms: _244  and  _246
REMARK  104  A    between atoms: _246  and  _247
REMARK  105  A    between atoms: _246  and  _249
REMARK  106  A    between atoms: _252  and  _254
REMARK  107  A    between atoms: _254  and  _255
REMARK  108  A    between atoms: _254  and  _257
REMARK  109  A    between atoms: _257  and  _258
REMARK  110  A    between atoms: _264  and  _266
REMARK  111  A    between atoms: _266  and  _267
REMARK  112  A    between atoms: _270  and  _272
REMARK  113  A    between atoms: _272  and  _273
REMARK  114  A    between atoms: _272  and  _275
REMARK  115  A    between atoms: _275  and  _276
REMARK  116  A    between atoms: _276  and  _277
REMARK  117  A    between atoms: _279  and  _281
REMARK  118  A    between atoms: _281  and  _282
REMARK  119  A    between atoms: _284  and  _286
REMARK  120  A    between atoms: _286  and  _287
REMARK  121  A    between atoms: _286  and  _289
REMARK  122  A    between atoms: _289  and  _290
REMARK  123  A    between atoms: _300  and  _302
REMARK  124  A    between atoms: _302  and  _303
REMARK  125  A    between atoms: _302  and  _305
REMARK  126  A    between atoms: _305  and  _306
REMARK  127  A    between atoms: _306  and  _307
REMARK  128  A    between atoms: _307  and  _308
REMARK  129  A    between atoms: _317  and  _319
REMARK  130  A    between atoms: _319  and  _320
REMARK  131  A    between atoms: _319  and  _322
REMARK  132  A    between atoms: _322  and  _323
REMARK  133  A    between atoms: _325  and  _327
REMARK  134  A    between atoms: _327  and  _328
REMARK  135  A    between atoms: _327  and  _330
REMARK  136  A    between atoms: _330  and  _331
REMARK  137  A    between atoms: _334  and  _336
REMARK  138  A    between atoms: _336  and  _337
REMARK  139  A    between atoms: _336  and  _339
REMARK  140  A    between atoms: _339  and  _340
REMARK  141  A    between atoms: _345  and  _346
REMARK  142  A    between atoms: _348  and  _350
REMARK  143  A    between atoms: _350  and  _351
REMARK  144  A    between atoms: _350  and  _353
REMARK  145  A    between atoms: _353  and  _354
REMARK  146  A    between atoms: _360  and  _362
REMARK  147  A    between atoms: _362  and  _363
REMARK  148  A    between atoms: _366  and  _368
REMARK  149  A    between atoms: _368  and  _369
REMARK  150  A    between atoms: _368  and  _371
REMARK  151  A    between atoms: _371  and  _372
REMARK  152  A    between atoms: _375  and  _377
REMARK  153  A    between atoms: _377  and  _378
REMARK  154  A    between atoms: _377  and  _380
REMARK  155  A    between atoms: _380  and  _381
REMARK  156  A    between atoms: _387  and  _389
REMARK  157  A    between atoms: _389  and  _390
REMARK  158  A    between atoms: _389  and  _392
REMARK  159  A    between atoms: _392  and  _393
REMARK  160  A    between atoms: _395  and  _397
REMARK  161  A    between atoms: _397  and  _398
REMARK  162  A    between atoms: _397  and  _400
REMARK  163  A    between atoms: _400  and  _401
REMARK  164  A    between atoms: _401  and  _402
REMARK  165  A    between atoms: _404  and  _406
REMARK  166  A    between atoms: _406  and  _407
REMARK  167  A    between atoms: _406  and  _409
REMARK  168  A    between atoms: _409  and  _410
REMARK  169  A    between atoms: _410  and  _411
REMARK  170  A    between atoms: _416  and  _418
REMARK  171  A    between atoms: _418  and  _419
REMARK  172  A    between atoms: _418  and  _421
REMARK  173  A    between atoms: _423  and  _425
REMARK  174  A    between atoms: _425  and  _426
REMARK  175  A    between atoms: _425  and  _428
REMARK  176  A    between atoms: _428  and  _429
REMARK  177  A    between atoms: _429  and  _430
REMARK  178  A    between atoms: _432  and  _434
REMARK  179  A    between atoms: _434  and  _435
REMARK  180  A    between atoms: _434  and  _437
REMARK  181  A    between atoms: _437  and  _438
REMARK  182  A    between atoms: _441  and  _443
REMARK  183  A    between atoms: _443  and  _444
REMARK  184  A    between atoms: _443  and  _446
REMARK  185  A    between atoms: _449  and  _451
REMARK  186  A    between atoms: _451  and  _452
REMARK  187  A    between atoms: _451  and  _454
REMARK  188  A    between atoms: _454  and  _455
REMARK  189  A    between atoms: _458  and  _460
REMARK  190  A    between atoms: _460  and  _461
REMARK  191  A    between atoms: _464  and  _466
REMARK  192  A    between atoms: _466  and  _467
REMARK  193  A    between atoms: _466  and  _469
REMARK  194  A    between atoms: _469  and  _470
REMARK  195  A    between atoms: _473  and  _475
REMARK  196  A    between atoms: _475  and  _476
REMARK  197  A    between atoms: _475  and  _478
REMARK  198  A    between atoms: _478  and  _479
REMARK  199  A    between atoms: _484  and  _486
REMARK  200  A    between atoms: _486  and  _487
REMARK  201  A    between atoms: _486  and  _489
REMARK  202  A    between atoms: _489  and  _490
REMARK  203  A    between atoms: _490  and  _491
REMARK  204  A    between atoms: _496  and  _498
REMARK  205  A    between atoms: _498  and  _499
REMARK  206  A    between atoms: _498  and  _501
REMARK  207  A    between atoms: _501  and  _502
REMARK  208  A    between atoms: _508  and  _510
REMARK  209  A    between atoms: _510  and  _511
REMARK  210  A    between atoms: _510  and  _513
REMARK  211  A    between atoms: _513  and  _514
REMARK  212  A    between atoms: _517  and  _519
REMARK  213  A    between atoms: _519  and  _520
REMARK  214  A    between atoms: _519  and  _522
REMARK  215  A    between atoms: _522  and  _523
REMARK  216  A    between atoms: _529  and  _531
REMARK  217  A    between atoms: _531  and  _532
REMARK  218  A    between atoms: _531  and  _534
REMARK  219  A    between atoms: _534  and  _535
REMARK  220  A    between atoms: _538  and  _540
REMARK  221  A    between atoms: _540  and  _541
REMARK  222  A    between atoms: _540  and  _543
REMARK  223  A    between atoms: _543  and  _544
REMARK  224  A    between atoms: _547  and  _549
REMARK  225  A    between atoms: _549  and  _550
REMARK  226  A    between atoms: _549  and  _552
REMARK  227  A    between atoms: _552  and  _553
REMARK  228  A    between atoms: _556  and  _558
REMARK  229  A    between atoms: _558  and  _559
REMARK  230  A    between atoms: _558  and  _561
REMARK  231  A    between atoms: _564  and  _566
REMARK  232  A    between atoms: _566  and  _567
REMARK  233  A    between atoms: _566  and  _569
REMARK  234  A    between atoms: _569  and  _570
REMARK  235  A    between atoms: _573  and  _575
REMARK  236  A    between atoms: _575  and  _576
REMARK  237  A    between atoms: _575  and  _578
REMARK  238  A    between atoms: _578  and  _579
REMARK  239  A    between atoms: _586  and  _587
REMARK  240  A    between atoms: _592  and  _594
REMARK  241  A    between atoms: _594  and  _595
REMARK  242  A    between atoms: _594  and  _597
REMARK  243  A    between atoms: _597  and  _598
REMARK  244  A    between atoms: _598  and  _599
REMARK  245  A    between atoms: _601  and  _603
REMARK  246  A    between atoms: _603  and  _604
REMARK  247  A    between atoms: _603  and  _606
REMARK  248  A    between atoms: _606  and  _607
REMARK  249  A    between atoms: _607  and  _608
REMARK  250  A    between atoms: _610  and  _612
REMARK  251  A    between atoms: _612  and  _613
REMARK  252  A    between atoms: _616  and  _618
REMARK  253  A    between atoms: _618  and  _619
REMARK  254  A    between atoms: _618  and  _621
REMARK  255  A    between atoms: _621  and  _622
REMARK  256  A    between atoms: _625  and  _627
REMARK  257  A    between atoms: _627  and  _628
REMARK  258  A    between atoms: _627  and  _630
REMARK  259  A    between atoms: _630  and  _631
REMARK  260  A    between atoms: _634  and  _636
REMARK  261  A    between atoms: _636  and  _637
REMARK  262  A    between atoms: _636  and  _639
REMARK  263  A    between atoms: _639  and  _640
REMARK  264  A    between atoms: _642  and  _644
REMARK  265  A    between atoms: _644  and  _645
REMARK  266  A    between atoms: _644  and  _647
REMARK  267  A    between atoms: _650  and  _652
REMARK  268  A    between atoms: _652  and  _653
REMARK  269  A    between atoms: _652  and  _655
REMARK  270  A    between atoms: _655  and  _656
REMARK  271  A    between atoms: _656  and  _657
REMARK  272  A    between atoms: _662  and  _664
REMARK  273  A    between atoms: _664  and  _665
REMARK  274  A    between atoms: _664  and  _667
REMARK  275  A    between atoms: _671  and  _672
REMARK  276  A    between atoms: _677  and  _679
REMARK  277  A    between atoms: _679  and  _680
REMARK  278  A    between atoms: _679  and  _682
REMARK  279  A    between atoms: _682  and  _683
REMARK  280  A    between atoms: _686  and  _688
REMARK  281  A    between atoms: _688  and  _689
REMARK  282  A    between atoms: _688  and  _691
REMARK  283  A    between atoms: _691  and  _692
REMARK                            x       y       z     vdW  Elec       q    Type
REMARK                         _______ _______ _______ _____ _____    ______ ____
ROOT
ATOM      1  CB  PHE A   1      22.590   3.734  -5.797  0.00  0.00    +0.051 C 
ENDROOT
BRANCH   1   2
ATOM      2  CG  PHE A   1      23.953   3.264  -5.370  0.00  0.00    -0.020 A 
ATOM      3  CD2 PHE A   1      24.125   1.963  -4.895  0.00  0.00    -0.004 A 
ATOM      4  CE2 PHE A   1      25.370   1.515  -4.458  0.00  0.00    -0.000 A 
ATOM      5  CZ  PHE A   1      26.464   2.376  -4.496  0.00  0.00    -0.000 A 
ATOM      6  CE1 PHE A   1      26.305   3.676  -4.969  0.00  0.00    -0.000 A 
ATOM      7  CD1 PHE A   1      25.051   4.114  -5.403  0.00  0.00    -0.004 A 
ENDBRANCH   1   2
BRANCH   1   8
ATOM      8  CA  PHE A   1      22.593   4.723  -6.970  0.00  0.00    +0.137 C 
BRANCH   8   9
ATOM      9  N   PHE A   1      22.791   6.077  -6.463  0.00  0.00    -0.239 NA
ATOM     10  H   PHE A   1      22.357   6.343  -5.556  0.00  0.00    +0.142 HD
ENDBRANCH   8   9
BRANCH   8  11
ATOM     11  C   PHE A   1      21.317   4.480  -7.767  0.00  0.00    +0.224 C 
ATOM     12  O   PHE A   1      20.214   4.744  -7.283  0.00  0.00    -0.287 OA
ENDBRANCH   8  11
ENDBRANCH   1   8
TORSDOF 4
REMARK  Name = ../refined-set-2016/3b5r/3b5r_pocket.pdb
REMARK  283 active torsions:
REMARK  status: ('A' for Active; 'I' for Inactive)
REMARK    1  A    between atoms: _1  and  _3
REMARK    2  A    between atoms: _3  and  _4
REMARK    3  A    between atoms: _3  and  _6
REMARK    4  A    between atoms: _9  and  _11
REMARK    5  A    between atoms: _11  and  _12
REMARK    6  A    between atoms: _15  and  _17
REMARK    7  A    between atoms: _17  and  _18
REMARK    8  A    between atoms: _17  and  _20
REMARK    9  A    between atoms: _20  and  _21
REMARK   10  A    between atoms: _27  and  _29
REMARK   11  A    between atoms: _29  and  _30
REMARK   12  A    between atoms: _29  and  _32
REMARK   13  A    between atoms: _32  and  _33
REMARK   14  A    between atoms: _36  and  _38
REMARK   15  A    between atoms: _38  and  _39
REMARK   16  A    between atoms: _38  and  _41
REMARK   17  A    between atoms: _41  and  _42
REMARK   18  A    between atoms: _45  and  _47
REMARK   19  A    between atoms: _47  and  _48
REMARK   20  A    between atoms: _47  and  _50
REMARK   21  A    between atoms: _50  and  _51
REMARK   22  A    between atoms: _53  and  _55
REMARK   23  A    between atoms: _55  and  _56
REMARK   24  A    between atoms: _55  and  _58
REMARK   25  A    between atoms: _58  and  _59
REMARK   26  A    between atoms: _61  and  _63
REMARK   27  A    between atoms: _63  and  _64
REMARK   28  A    between atoms: _63  and  _66
REMARK   29  A    between atoms: _66  and  _67
REMARK   30  A    between atoms: _70  and  _72
REMARK   31  A    between atoms: _72  and  _73
REMARK   32  A    between atoms: _72  and  _75
REMARK   33  A    between atoms: _75  and  _76
REMARK   34  A    between atoms: _81  and  _83
REMARK   35  A    between atoms: _83  and  _84
REMARK   36  A    between atoms: _83  and  _86
REMARK   37  A    between atoms: _86  and  _87
REMARK   38  A    between atoms: _87  and  _88
REMARK   39  A    between atoms: _91  and  _93
REMARK   40  A    between atoms: _93  and  _94
REMARK   41  A    between atoms: _93  and  _96
REMARK   42  A    between atoms: _96  and  _97
REMARK   43  A    between atoms: _100  and  _102
REMARK   44  A    between atoms: _102  and  _103
REMARK   45  A    between atoms: _105  and  _107
REMARK   46  A    between atoms: _107  and  _108
REMARK   47  A    between atoms: _107  and  _110
REMARK   48  A    between atoms: _110  and  _111
REMARK   49  A    between atoms: _111  and  _112
REMARK   50  A    between atoms: _115  and  _117
REMARK   51  A    between atoms: _117  and  _118
REMARK   52  A    between atoms: _117  and  _120
REMARK   53  A    between atoms: _120  and  _121
REMARK   54  A    between atoms: _121  and  _122
REMARK   55  A    between atoms: _122  and  _123
REMARK   56  A    between atoms: _132  and  _134
REMARK   57  A    between atoms: _134  and  _135
REMARK   58  A    between atoms: _134  and  _137
REMARK   59  A    between atoms: _137  and  _138
REMARK   60  A    between atoms: _138  and  _139
REMARK   61  A    between atoms: _144  and  _146
REMARK   62  A    between atoms: _146  and  _147
REMARK   63  A    between atoms: _146  and  _149
REMARK   64  A    between atoms: _149  and  _150
REMARK   65  A    between atoms: _153  and  _155
REMARK   66  A    between atoms: _155  and  _156
REMARK   67  A    between atoms: _155  and  _158
REMARK   68  A    between atoms: _158  and  _159
REMARK   69  A    between atoms: _162  and  _164
REMARK   70  A    between atoms: _164  and  _165
REMARK   71  A    between atoms: _164  and  _167
REMARK   72  A    between atoms: _167  and  _168
REMARK   73  A    between atoms: _168  and  _169
REMARK   74  A    between atoms: _174  and  _176
REMARK   75  A    between atoms: _176  and  _177
REMARK   76  A    between atoms: _176  and  _179
REMARK   77  A    between atoms: _179  and  _180
REMARK   78  A    between atoms: _185  and  _186
REMARK   79  A    between atoms: _188  and  _190
REMARK   80  A    between atoms: _190  and  _191
REMARK   81  A    between atoms: _190  and  _193
REMARK   82  A    between atoms: _193  and  _194
REMARK   83  A    between atoms: _196  and  _198
REMARK   84  A    between atoms: _198  and  _199
REMARK   85  A    between atoms: _198  and  _201
REMARK   86  A    between atoms: _201  and  _202
REMARK   87  A    between atoms: _212  and  _214
REMARK   88  A    between atoms: _214  and  _215
REMARK   89  A    between atoms: _214  and  _217
REMARK   90  A    between atoms: _217  and  _218
REMARK   91  A    between atoms: _218  and  _219
REMARK   92  A    between atoms: _221  and  _223
REMARK   93  A    between atoms: _223  and  _224
REMARK   94  A    between atoms: _226  and  _228
REMARK   95  A    between atoms: _228  and  _229
REMARK   96  A    between atoms: _228  and  _231
REMARK   97  A    between atoms: _231  and  _232
REMARK   98  A    between atoms: _235  and  _237
REMARK   99  A    between atoms: _237  and  _238
REMARK  100  A    between atoms: _237  and  _240
REMARK  101  A    between atoms: _240  and  _241
REMARK  102  A    between atoms: _241  and  _242
REMARK  103  A    between atoms: _244  and  _246
REMARK  104  A    between atoms: _246  and  _247
REMARK  105  A    between atoms: _246  and  _249
REMARK  106  A    between atoms: _252  and  _254
REMARK  107  A    between atoms: _254  and  _255
REMARK  108  A    between atoms: _254  and  _257
REMARK  109  A    between atoms: _257  and  _258
REMARK  110  A    between atoms: _264  and  _266
REMARK  111  A    between atoms: _266  and  _267
REMARK  112  A    between atoms: _270  and  _272
REMARK  113  A    between atoms: _272  and  _273
REMARK  114  A    between atoms: _272  and  _275
REMARK  115  A    between atoms: _275  and  _276
REMARK  116  A    between atoms: _276  and  _277
REMARK  117  A    between atoms: _279  and  _281
REMARK  118  A    between atoms: _281  and  _282
REMARK  119  A    between atoms: _284  and  _286
REMARK  120  A    between atoms: _286  and  _287
REMARK  121  A    between atoms: _286  and  _289
REMARK  122  A    between atoms: _289  and  _290
REMARK  123  A    between atoms: _300  and  _302
REMARK  124  A    between atoms: _302  and  _303
REMARK  125  A    between atoms: _302  and  _305
REMARK  126  A    between atoms: _305  and  _306
REMARK  127  A    between atoms: _306  and  _307
REMARK  128  A    between atoms: _307  and  _308
REMARK  129  A    between atoms: _317  and  _319
REMARK  130  A    between atoms: _319  and  _320
REMARK  131  A    between atoms: _319  and  _322
REMARK  132  A    between atoms: _322  and  _323
REMARK  133  A    between atoms: _325  and  _327
REMARK  134  A    between atoms: _327  and  _328
REMARK  135  A    between atoms: _327  and  _330
REMARK  136  A    between atoms: _330  and  _331
REMARK  137  A    between atoms: _334  and  _336
REMARK  138  A    between atoms: _336  and  _337
REMARK  139  A    between atoms: _336  and  _339
REMARK  140  A    between atoms: _339  and  _340
REMARK  141  A    between atoms: _345  and  _346
REMARK  142  A    between atoms: _348  and  _350
REMARK  143  A    between atoms: _350  and  _351
REMARK  144  A    between atoms: _350  and  _353
REMARK  145  A    between atoms: _353  and  _354
REMARK  146  A    between atoms: _360  and  _362
REMARK  147  A    between atoms: _362  and  _363
REMARK  148  A    between atoms: _366  and  _368
REMARK  149  A    between atoms: _368  and  _369
REMARK  150  A    between atoms: _368  and  _371
REMARK  151  A    between atoms: _371  and  _372
REMARK  152  A    between atoms: _375  and  _377
REMARK  153  A    between atoms: _377  and  _378
REMARK  154  A    between atoms: _377  and  _380
REMARK  155  A    between atoms: _380  and  _381
REMARK  156  A    between atoms: _387  and  _389
REMARK  157  A    between atoms: _389  and  _390
REMARK  158  A    between atoms: _389  and  _392
REMARK  159  A    between atoms: _392  and  _393
REMARK  160  A    between atoms: _395  and  _397
REMARK  161  A    between atoms: _397  and  _398
REMARK  162  A    between atoms: _397  and  _400
REMARK  163  A    between atoms: _400  and  _401
REMARK  164  A    between atoms: _401  and  _402
REMARK  165  A    between atoms: _404  and  _406
REMARK  166  A    between atoms: _406  and  _407
REMARK  167  A    between atoms: _406  and  _409
REMARK  168  A    between atoms: _409  and  _410
REMARK  169  A    between atoms: _410  and  _411
REMARK  170  A    between atoms: _416  and  _418
REMARK  171  A    between atoms: _418  and  _419
REMARK  172  A    between atoms: _418  and  _421
REMARK  173  A    between atoms: _423  and  _425
REMARK  174  A    between atoms: _425  and  _426
REMARK  175  A    between atoms: _425  and  _428
REMARK  176  A    between atoms: _428  and  _429
REMARK  177  A    between atoms: _429  and  _430
REMARK  178  A    between atoms: _432  and  _434
REMARK  179  A    between atoms: _434  and  _435
REMARK  180  A    between atoms: _434  and  _437
REMARK  181  A    between atoms: _437  and  _438
REMARK  182  A    between atoms: _441  and  _443
REMARK  183  A    between atoms: _443  and  _444
REMARK  184  A    between atoms: _443  and  _446
REMARK  185  A    between atoms: _449  and  _451
REMARK  186  A    between atoms: _451  and  _452
REMARK  187  A    between atoms: _451  and  _454
REMARK  188  A    between atoms: _454  and  _455
REMARK  189  A    between atoms: _458  and  _460
REMARK  190  A    between atoms: _460  and  _461
REMARK  191  A    between atoms: _464  and  _466
REMARK  192  A    between atoms: _466  and  _467
REMARK  193  A    between atoms: _466  and  _469
REMARK  194  A    between atoms: _469  and  _470
REMARK  195  A    between atoms: _473  and  _475
REMARK  196  A    between atoms: _475  and  _476
REMARK  197  A    between atoms: _475  and  _478
REMARK  198  A    between atoms: _478  and  _479
REMARK  199  A    between atoms: _484  and  _486
REMARK  200  A    between atoms: _486  and  _487
REMARK  201  A    between atoms: _486  and  _489
REMARK  202  A    between atoms: _489  and  _490
REMARK  203  A    between atoms: _490  and  _491
REMARK  204  A    between atoms: _496  and  _498
REMARK  205  A    between atoms: _498  and  _499
REMARK  206  A    between atoms: _498  and  _501
REMARK  207  A    between atoms: _501  and  _502
REMARK  208  A    between atoms: _508  and  _510
REMARK  209  A    between atoms: _510  and  _511
REMARK  210  A    between atoms: _510  and  _513
REMARK  211  A    between atoms: _513  and  _514
REMARK  212  A    between atoms: _517  and  _519
REMARK  213  A    between atoms: _519  and  _520
REMARK  214  A    between atoms: _519  and  _522
REMARK  215  A    between atoms: _522  and  _523
REMARK  216  A    between atoms: _529  and  _531
REMARK  217  A    between atoms: _531  and  _532
REMARK  218  A    between atoms: _531  and  _534
REMARK  219  A    between atoms: _534  and  _535
REMARK  220  A    between atoms: _538  and  _540
REMARK  221  A    between atoms: _540  and  _541
REMARK  222  A    between atoms: _540  and  _543
REMARK  223  A    between atoms: _543  and  _544
REMARK  224  A    between atoms: _547  and  _549
REMARK  225  A    between atoms: _549  and  _550
REMARK  226  A    between atoms: _549  and  _552
REMARK  227  A    between atoms: _552  and  _553
REMARK  228  A    between atoms: _556  and  _558
REMARK  229  A    between atoms: _558  and  _559
REMARK  230  A    between atoms: _558  and  _561
REMARK  231  A    between atoms: _564  and  _566
REMARK  232  A    between atoms: _566  and  _567
REMARK  233  A    between atoms: _566  and  _569
REMARK  234  A    between atoms: _569  and  _570
REMARK  235  A    between atoms: _573  and  _575
REMARK  236  A    between atoms: _575  and  _576
REMARK  237  A    between atoms: _575  and  _578
REMARK  238  A    between atoms: _578  and  _579
REMARK  239  A    between atoms: _586  and  _587
REMARK  240  A    between atoms: _592  and  _594
REMARK  241  A    between atoms: _594  and  _595
REMARK  242  A    between atoms: _594  and  _597
REMARK  243  A    between atoms: _597  and  _598
REMARK  244  A    between atoms: _598  and  _599
REMARK  245  A    between atoms: _601  and  _603
REMARK  246  A    between atoms: _603  and  _604
REMARK  247  A    between atoms: _603  and  _606
REMARK  248  A    between atoms: _606  and  _607
REMARK  249  A    between atoms: _607  and  _608
REMARK  250  A    between atoms: _610  and  _612
REMARK  251  A    between atoms: _612  and  _613
REMARK  252  A    between atoms: _616  and  _618
REMARK  253  A    between atoms: _618  and  _619
REMARK  254  A    between atoms: _618  and  _621
REMARK  255  A    between atoms: _621  and  _622
REMARK  256  A    between atoms: _625  and  _627
REMARK  257  A    between atoms: _627  and  _628
REMARK  258  A    between atoms: _627  and  _630
REMARK  259  A    between atoms: _630  and  _631
REMARK  260  A    between atoms: _634  and  _636
REMARK  261  A    between atoms: _636  and  _637
REMARK  262  A    between atoms: _636  and  _639
REMARK  263  A    between atoms: _639  and  _640
REMARK  264  A    between atoms: _642  and  _644
REMARK  265  A    between atoms: _644  and  _645
REMARK  266  A    between atoms: _644  and  _647
REMARK  267  A    between atoms: _650  and  _652
REMARK  268  A    between atoms: _652  and  _653
REMARK  269  A    between atoms: _652  and  _655
REMARK  270  A    between atoms: _655  and  _656
REMARK  271  A    between atoms: _656  and  _657
REMARK  272  A    between atoms: _662  and  _664
REMARK  273  A    between atoms: _664  and  _665
REMARK  274  A    between atoms: _664  and  _667
REMARK  275  A    between atoms: _671  and  _672
REMARK  276  A    between atoms: _677  and  _679
REMARK  277  A    between atoms: _679  and  _680
REMARK  278  A    between atoms: _679  and  _682
REMARK  279  A    between atoms: _682  and  _683
REMARK  280  A    between atoms: _686  and  _688
REMARK  281  A    between atoms: _688  and  _689
REMARK  282  A    between atoms: _688  and  _691
REMARK  283  A    between atoms: _691  and  _692
REMARK                            x       y       z     vdW  Elec       q    Type
REMARK                         _______ _______ _______ _____ _____    ______ ____
ROOT
ATOM      1  CA  SER A   1      27.426  -3.005  -5.346  0.00  0.00    +0.163 C 
ENDROOT
BRANCH   1   2
ATOM      2  N   SER A   1      26.813  -3.150  -6.665  0.00  0.00    -0.237 NA
ATOM      3  H   SER A   1      25.877  -2.734  -6.848  0.00  0.00    +0.142 HD
ENDBRANCH   1   2
BRANCH   1   4
ATOM      4  C   SER A   1      27.272  -4.283  -4.532  0.00  0.00    +0.227 C 
ATOM      5  O   SER A   1      27.865  -4.424  -3.462  0.00  0.00    -0.287 OA
ENDBRANCH   1   4
BRANCH   1   6
ATOM      6  CB  SER A   1      26.781  -1.851  -4.576  0.00  0.00    +0.162 C 
BRANCH   6   7
ATOM      7  OG  SER A   1      25.500  -2.229  -4.100  0.00  0.00    -0.380 OA
ATOM      8  H   SER A   1      24.922  -2.469  -4.867  0.00  0.00    +0.211 HD
ENDBRANCH   6   7
ENDBRANCH   1   6
TORSDOF 4
REMARK  Name = ../refined-set-2016/3b5r/3b5r_pocket.pdb
REMARK  283 active torsions:
REMARK  status: ('A' for Active; 'I' for Inactive)
REMARK    1  A    between atoms: _1  and  _3
REMARK    2  A    between atoms: _3  and  _4
REMARK    3  A    between atoms: _3  and  _6
REMARK    4  A    between atoms: _9  and  _11
REMARK    5  A    between atoms: _11  and  _12
REMARK    6  A    between atoms: _15  and  _17
REMARK    7  A    between atoms: _17  and  _18
REMARK    8  A    between atoms: _17  and  _20
REMARK    9  A    between atoms: _20  and  _21
REMARK   10  A    between atoms: _27  and  _29
REMARK   11  A    between atoms: _29  and  _30
REMARK   12  A    between atoms: _29  and  _32
REMARK   13  A    between atoms: _32  and  _33
REMARK   14  A    between atoms: _36  and  _38
REMARK   15  A    between atoms: _38  and  _39
REMARK   16  A    between atoms: _38  and  _41
REMARK   17  A    between atoms: _41  and  _42
REMARK   18  A    between atoms: _45  and  _47
REMARK   19  A    between atoms: _47  and  _48
REMARK   20  A    between atoms: _47  and  _50
REMARK   21  A    between atoms: _50  and  _51
REMARK   22  A    between atoms: _53  and  _55
REMARK   23  A    between atoms: _55  and  _56
REMARK   24  A    between atoms: _55  and  _58
REMARK   25  A    between atoms: _58  and  _59
REMARK   26  A    between atoms: _61  and  _63
REMARK   27  A    between atoms: _63  and  _64
REMARK   28  A    between atoms: _63  and  _66
REMARK   29  A    between atoms: _66  and  _67
REMARK   30  A    between atoms: _70  and  _72
REMARK   31  A    between atoms: _72  and  _73
REMARK   32  A    between atoms: _72  and  _75
REMARK   33  A    between atoms: _75  and  _76
REMARK   34  A    between atoms: _81  and  _83
REMARK   35  A    between atoms: _83  and  _84
REMARK   36  A    between atoms: _83  and  _86
REMARK   37  A    between atoms: _86  and  _87
REMARK   38  A    between atoms: _87  and  _88
REMARK   39  A    between atoms: _91  and  _93
REMARK   40  A    between atoms: _93  and  _94
REMARK   41  A    between atoms: _93  and  _96
REMARK   42  A    between atoms: _96  and  _97
REMARK   43  A    between atoms: _100  and  _102
REMARK   44  A    between atoms: _102  and  _103
REMARK   45  A    between atoms: _105  and  _107
REMARK   46  A    between atoms: _107  and  _108
REMARK   47  A    between atoms: _107  and  _110
REMARK   48  A    between atoms: _110  and  _111
REMARK   49  A    between atoms: _111  and  _112
REMARK   50  A    between atoms: _115  and  _117
REMARK   51  A    between atoms: _117  and  _118
REMARK   52  A    between atoms: _117  and  _120
REMARK   53  A    between atoms: _120  and  _121
REMARK   54  A    between atoms: _121  and  _122
REMARK   55  A    between atoms: _122  and  _123
REMARK   56  A    between atoms: _132  and  _134
REMARK   57  A    between atoms: _134  and  _135
REMARK   58  A    between atoms: _134  and  _137
REMARK   59  A    between atoms: _137  and  _138
REMARK   60  A    between atoms: _138  and  _139
REMARK   61  A    between atoms: _144  and  _146
REMARK   62  A    between atoms: _146  and  _147
REMARK   63  A    between atoms: _146  and  _149
REMARK   64  A    between atoms: _149  and  _150
REMARK   65  A    between atoms: _153  and  _155
REMARK   66  A    between atoms: _155  and  _156
REMARK   67  A    between atoms: _155  and  _158
REMARK   68  A    between atoms: _158  and  _159
REMARK   69  A    between atoms: _162  and  _164
REMARK   70  A    between atoms: _164  and  _165
REMARK   71  A    between atoms: _164  and  _167
REMARK   72  A    between atoms: _167  and  _168
REMARK   73  A    between atoms: _168  and  _169
REMARK   74  A    between atoms: _174  and  _176
REMARK   75  A    between atoms: _176  and  _177
REMARK   76  A    between atoms: _176  and  _179
REMARK   77  A    between atoms: _179  and  _180
REMARK   78  A    between atoms: _185  and  _186
REMARK   79  A    between atoms: _188  and  _190
REMARK   80  A    between atoms: _190  and  _191
REMARK   81  A    between atoms: _190  and  _193
REMARK   82  A    between atoms: _193  and  _194
REMARK   83  A    between atoms: _196  and  _198
REMARK   84  A    between atoms: _198  and  _199
REMARK   85  A    between atoms: _198  and  _201
REMARK   86  A    between atoms: _201  and  _202
REMARK   87  A    between atoms: _212  and  _214
REMARK   88  A    between atoms: _214  and  _215
REMARK   89  A    between atoms: _214  and  _217
REMARK   90  A    between atoms: _217  and  _218
REMARK   91  A    between atoms: _218  and  _219
REMARK   92  A    between atoms: _221  and  _223
REMARK   93  A    between atoms: _223  and  _224
REMARK   94  A    between atoms: _226  and  _228
REMARK   95  A    between atoms: _228  and  _229
REMARK   96  A    between atoms: _228  and  _231
REMARK   97  A    between atoms: _231  and  _232
REMARK   98  A    between atoms: _235  and  _237
REMARK   99  A    between atoms: _237  and  _238
REMARK  100  A    between atoms: _237  and  _240
REMARK  101  A    between atoms: _240  and  _241
REMARK  102  A    between atoms: _241  and  _242
REMARK  103  A    between atoms: _244  and  _246
REMARK  104  A    between atoms: _246  and  _247
REMARK  105  A    between atoms: _246  and  _249
REMARK  106  A    between atoms: _252  and  _254
REMARK  107  A    between atoms: _254  and  _255
REMARK  108  A    between atoms: _254  and  _257
REMARK  109  A    between atoms: _257  and  _258
REMARK  110  A    between atoms: _264  and  _266
REMARK  111  A    between atoms: _266  and  _267
REMARK  112  A    between atoms: _270  and  _272
REMARK  113  A    between atoms: _272  and  _273
REMARK  114  A    between atoms: _272  and  _275
REMARK  115  A    between atoms: _275  and  _276
REMARK  116  A    between atoms: _276  and  _277
REMARK  117  A    between atoms: _279  and  _281
REMARK  118  A    between atoms: _281  and  _282
REMARK  119  A    between atoms: _284  and  _286
REMARK  120  A    between atoms: _286  and  _287
REMARK  121  A    between atoms: _286  and  _289
REMARK  122  A    between atoms: _289  and  _290
REMARK  123  A    between atoms: _300  and  _302
REMARK  124  A    between atoms: _302  and  _303
REMARK  125  A    between atoms: _302  and  _305
REMARK  126  A    between atoms: _305  and  _306
REMARK  127  A    between atoms: _306  and  _307
REMARK  128  A    between atoms: _307  and  _308
REMARK  129  A    between atoms: _317  and  _319
REMARK  130  A    between atoms: _319  and  _320
REMARK  131  A    between atoms: _319  and  _322
REMARK  132  A    between atoms: _322  and  _323
REMARK  133  A    between atoms: _325  and  _327
REMARK  134  A    between atoms: _327  and  _328
REMARK  135  A    between atoms: _327  and  _330
REMARK  136  A    between atoms: _330  and  _331
REMARK  137  A    between atoms: _334  and  _336
REMARK  138  A    between atoms: _336  and  _337
REMARK  139  A    between atoms: _336  and  _339
REMARK  140  A    between atoms: _339  and  _340
REMARK  141  A    between atoms: _345  and  _346
REMARK  142  A    between atoms: _348  and  _350
REMARK  143  A    between atoms: _350  and  _351
REMARK  144  A    between atoms: _350  and  _353
REMARK  145  A    between atoms: _353  and  _354
REMARK  146  A    between atoms: _360  and  _362
REMARK  147  A    between atoms: _362  and  _363
REMARK  148  A    between atoms: _366  and  _368
REMARK  149  A    between atoms: _368  and  _369
REMARK  150  A    between atoms: _368  and  _371
REMARK  151  A    between atoms: _371  and  _372
REMARK  152  A    between atoms: _375  and  _377
REMARK  153  A    between atoms: _377  and  _378
REMARK  154  A    between atoms: _377  and  _380
REMARK  155  A    between atoms: _380  and  _381
REMARK  156  A    between atoms: _387  and  _389
REMARK  157  A    between atoms: _389  and  _390
REMARK  158  A    between atoms: _389  and  _392
REMARK  159  A    between atoms: _392  and  _393
REMARK  160  A    between atoms: _395  and  _397
REMARK  161  A    between atoms: _397  and  _398
REMARK  162  A    between atoms: _397  and  _400
REMARK  163  A    between atoms: _400  and  _401
REMARK  164  A    between atoms: _401  and  _402
REMARK  165  A    between atoms: _404  and  _406
REMARK  166  A    between atoms: _406  and  _407
REMARK  167  A    between atoms: _406  and  _409
REMARK  168  A    between atoms: _409  and  _410
REMARK  169  A    between atoms: _410  and  _411
REMARK  170  A    between atoms: _416  and  _418
REMARK  171  A    between atoms: _418  and  _419
REMARK  172  A    between atoms: _418  and  _421
REMARK  173  A    between atoms: _423  and  _425
REMARK  174  A    between atoms: _425  and  _426
REMARK  175  A    between atoms: _425  and  _428
REMARK  176  A    between atoms: _428  and  _429
REMARK  177  A    between atoms: _429  and  _430
REMARK  178  A    between atoms: _432  and  _434
REMARK  179  A    between atoms: _434  and  _435
REMARK  180  A    between atoms: _434  and  _437
REMARK  181  A    between atoms: _437  and  _438
REMARK  182  A    between atoms: _441  and  _443
REMARK  183  A    between atoms: _443  and  _444
REMARK  184  A    between atoms: _443  and  _446
REMARK  185  A    between atoms: _449  and  _451
REMARK  186  A    between atoms: _451  and  _452
REMARK  187  A    between atoms: _451  and  _454
REMARK  188  A    between atoms: _454  and  _455
REMARK  189  A    between atoms: _458  and  _460
REMARK  190  A    between atoms: _460  and  _461
REMARK  191  A    between atoms: _464  and  _466
REMARK  192  A    between atoms: _466  and  _467
REMARK  193  A    between atoms: _466  and  _469
REMARK  194  A    between atoms: _469  and  _470
REMARK  195  A    between atoms: _473  and  _475
REMARK  196  A    between atoms: _475  and  _476
REMARK  197  A    between atoms: _475  and  _478
REMARK  198  A    between atoms: _478  and  _479
REMARK  199  A    between atoms: _484  and  _486
REMARK  200  A    between atoms: _486  and  _487
REMARK  201  A    between atoms: _486  and  _489
REMARK  202  A    between atoms: _489  and  _490
REMARK  203  A    between atoms: _490  and  _491
REMARK  204  A    between atoms: _496  and  _498
REMARK  205  A    between atoms: _498  and  _499
REMARK  206  A    between atoms: _498  and  _501
REMARK  207  A    between atoms: _501  and  _502
REMARK  208  A    between atoms: _508  and  _510
REMARK  209  A    between atoms: _510  and  _511
REMARK  210  A    between atoms: _510  and  _513
REMARK  211  A    between atoms: _513  and  _514
REMARK  212  A    between atoms: _517  and  _519
REMARK  213  A    between atoms: _519  and  _520
REMARK  214  A    between atoms: _519  and  _522
REMARK  215  A    between atoms: _522  and  _523
REMARK  216  A    between atoms: _529  and  _531
REMARK  217  A    between atoms: _531  and  _532
REMARK  218  A    between atoms: _531  and  _534
REMARK  219  A    between atoms: _534  and  _535
REMARK  220  A    between atoms: _538  and  _540
REMARK  221  A    between atoms: _540  and  _541
REMARK  222  A    between atoms: _540  and  _543
REMARK  223  A    between atoms: _543  and  _544
REMARK  224  A    between atoms: _547  and  _549
REMARK  225  A    between atoms: _549  and  _550
REMARK  226  A    between atoms: _549  and  _552
REMARK  227  A    between atoms: _552  and  _553
REMARK  228  A    between atoms: _556  and  _558
REMARK  229  A    between atoms: _558  and  _559
REMARK  230  A    between atoms: _558  and  _561
REMARK  231  A    between atoms: _564  and  _566
REMARK  232  A    between atoms: _566  and  _567
REMARK  233  A    between atoms: _566  and  _569
REMARK  234  A    between atoms: _569  and  _570
REMARK  235  A    between atoms: _573  and  _575
REMARK  236  A    between atoms: _575  and  _576
REMARK  237  A    between atoms: _575  and  _578
REMARK  238  A    between atoms: _578  and  _579
REMARK  239  A    between atoms: _586  and  _587
REMARK  240  A    between atoms: _592  and  _594
REMARK  241  A    between atoms: _594  and  _595
REMARK  242  A    between atoms: _594  and  _597
REMARK  243  A    between atoms: _597  and  _598
REMARK  244  A    between atoms: _598  and  _599
REMARK  245  A    between atoms: _601  and  _603
REMARK  246  A    between atoms: _603  and  _604
REMARK  247  A    between atoms: _603  and  _606
REMARK  248  A    between atoms: _606  and  _607
REMARK  249  A    between atoms: _607  and  _608
REMARK  250  A    between atoms: _610  and  _612
REMARK  251  A    between atoms: _612  and  _613
REMARK  252  A    between atoms: _616  and  _618
REMARK  253  A    between atoms: _618  and  _619
REMARK  254  A    between atoms: _618  and  _621
REMARK  255  A    between atoms: _621  and  _622
REMARK  256  A    between atoms: _625  and  _627
REMARK  257  A    between atoms: _627  and  _628
REMARK  258  A    between atoms: _627  and  _630
REMARK  259  A    between atoms: _630  and  _631
REMARK  260  A    between atoms: _634  and  _636
REMARK  261  A    between atoms: _636  and  _637
REMARK  262  A    between atoms: _636  and  _639
REMARK  263  A    between atoms: _639  and  _640
REMARK  264  A    between atoms: _642  and  _644
REMARK  265  A    between atoms: _644  and  _645
REMARK  266  A    between atoms: _644  and  _647
REMARK  267  A    between atoms: _650  and  _652
REMARK  268  A    between atoms: _652  and  _653
REMARK  269  A    between atoms: _652  and  _655
REMARK  270  A    between atoms: _655  and  _656
REMARK  271  A    between atoms: _656  and  _657
REMARK  272  A    between atoms: _662  and  _664
REMARK  273  A    between atoms: _664  and  _665
REMARK  274  A    between atoms: _664  and  _667
REMARK  275  A    between atoms: _671  and  _672
REMARK  276  A    between atoms: _677  and  _679
REMARK  277  A    between atoms: _679  and  _680
REMARK  278  A    between atoms: _679  and  _682
REMARK  279  A    between atoms: _682  and  _683
REMARK  280  A    between atoms: _686  and  _688
REMARK  281  A    between atoms: _688  and  _689
REMARK  282  A    between atoms: _688  and  _691
REMARK  283  A    between atoms: _691  and  _692
REMARK                            x       y       z     vdW  Elec       q    Type
REMARK                         _______ _______ _______ _____ _____    ______ ____
ROOT
ATOM      1  CA  MET A   1      23.993  -4.740  -1.783  0.00  0.00    +0.134 C 
ENDROOT
BRANCH   1   2
ATOM      2  N   MET A   1      24.805  -5.070  -2.959  0.00  0.00    -0.239 NA
ATOM      3  H   MET A   1      24.918  -4.361  -3.711  0.00  0.00    +0.142 HD
ENDBRANCH   1   2
BRANCH   1   4
ATOM      4  C   MET A   1      22.571  -4.459  -2.257  0.00  0.00    +0.224 C 
ATOM      5  O   MET A   1      21.880  -3.612  -1.689  0.00  0.00    -0.287 OA
ENDBRANCH   1   4
BRANCH   1   6
ATOM      6  CB  MET A   1      24.514  -3.474  -1.106  0.00  0.00    +0.037 C 
BRANCH   6   7
ATOM      7  CG  MET A   1      26.002  -3.428  -0.850  0.00  0.00    +0.059 C 
BRANCH   7   8
ATOM      8  SD  MET A   1      26.464  -1.822  -0.156  0.00  0.00    -0.139 S 
ATOM      9  CE  MET A   1      25.992  -2.041   1.494  0.00  0.00    +0.069 C 
ENDBRANCH   7   8
ENDBRANCH   6   7
ENDBRANCH   1   6
TORSDOF 5
REMARK  Name = ../refined-set-2016/3b5r/3b5r_pocket.pdb
REMARK  283 active torsions:
REMARK  status: ('A' for Active; 'I' for Inactive)
REMARK    1  A    between atoms: _1  and  _3
REMARK    2  A    between atoms: _3  and  _4
REMARK    3  A    between atoms: _3  and  _6
REMARK    4  A    between atoms: _9  and  _11
REMARK    5  A    between atoms: _11  and  _12
REMARK    6  A    between atoms: _15  and  _17
REMARK    7  A    between atoms: _17  and  _18
REMARK    8  A    between atoms: _17  and  _20
REMARK    9  A    between atoms: _20  and  _21
REMARK   10  A    between atoms: _27  and  _29
REMARK   11  A    between atoms: _29  and  _30
REMARK   12  A    between atoms: _29  and  _32
REMARK   13  A    between atoms: _32  and  _33
REMARK   14  A    between atoms: _36  and  _38
REMARK   15  A    between atoms: _38  and  _39
REMARK   16  A    between atoms: _38  and  _41
REMARK   17  A    between atoms: _41  and  _42
REMARK   18  A    between atoms: _45  and  _47
REMARK   19  A    between atoms: _47  and  _48
REMARK   20  A    between atoms: _47  and  _50
REMARK   21  A    between atoms: _50  and  _51
REMARK   22  A    between atoms: _53  and  _55
REMARK   23  A    between atoms: _55  and  _56
REMARK   24  A    between atoms: _55  and  _58
REMARK   25  A    between atoms: _58  and  _59
REMARK   26  A    between atoms: _61  and  _63
REMARK   27  A    between atoms: _63  and  _64
REMARK   28  A    between atoms: _63  and  _66
REMARK   29  A    between atoms: _66  and  _67
REMARK   30  A    between atoms: _70  and  _72
REMARK   31  A    between atoms: _72  and  _73
REMARK   32  A    between atoms: _72  and  _75
REMARK   33  A    between atoms: _75  and  _76
REMARK   34  A    between atoms: _81  and  _83
REMARK   35  A    between atoms: _83  and  _84
REMARK   36  A    between atoms: _83  and  _86
REMARK   37  A    between atoms: _86  and  _87
REMARK   38  A    between atoms: _87  and  _88
REMARK   39  A    between atoms: _91  and  _93
REMARK   40  A    between atoms: _93  and  _94
REMARK   41  A    between atoms: _93  and  _96
REMARK   42  A    between atoms: _96  and  _97
REMARK   43  A    between atoms: _100  and  _102
REMARK   44  A    between atoms: _102  and  _103
REMARK   45  A    between atoms: _105  and  _107
REMARK   46  A    between atoms: _107  and  _108
REMARK   47  A    between atoms: _107  and  _110
REMARK   48  A    between atoms: _110  and  _111
REMARK   49  A    between atoms: _111  and  _112
REMARK   50  A    between atoms: _115  and  _117
REMARK   51  A    between atoms: _117  and  _118
REMARK   52  A    between atoms: _117  and  _120
REMARK   53  A    between atoms: _120  and  _121
REMARK   54  A    between atoms: _121  and  _122
REMARK   55  A    between atoms: _122  and  _123
REMARK   56  A    between atoms: _132  and  _134
REMARK   57  A    between atoms: _134  and  _135
REMARK   58  A    between atoms: _134  and  _137
REMARK   59  A    between atoms: _137  and  _138
REMARK   60  A    between atoms: _138  and  _139
REMARK   61  A    between atoms: _144  and  _146
REMARK   62  A    between atoms: _146  and  _147
REMARK   63  A    between atoms: _146  and  _149
REMARK   64  A    between atoms: _149  and  _150
REMARK   65  A    between atoms: _153  and  _155
REMARK   66  A    between atoms: _155  and  _156
REMARK   67  A    between atoms: _155  and  _158
REMARK   68  A    between atoms: _158  and  _159
REMARK   69  A    between atoms: _162  and  _164
REMARK   70  A    between atoms: _164  and  _165
REMARK   71  A    between atoms: _164  and  _167
REMARK   72  A    between atoms: _167  and  _168
REMARK   73  A    between atoms: _168  and  _169
REMARK   74  A    between atoms: _174  and  _176
REMARK   75  A    between atoms: _176  and  _177
REMARK   76  A    between atoms: _176  and  _179
REMARK   77  A    between atoms: _179  and  _180
REMARK   78  A    between atoms: _185  and  _186
REMARK   79  A    between atoms: _188  and  _190
REMARK   80  A    between atoms: _190  and  _191
REMARK   81  A    between atoms: _190  and  _193
REMARK   82  A    between atoms: _193  and  _194
REMARK   83  A    between atoms: _196  and  _198
REMARK   84  A    between atoms: _198  and  _199
REMARK   85  A    between atoms: _198  and  _201
REMARK   86  A    between atoms: _201  and  _202
REMARK   87  A    between atoms: _212  and  _214
REMARK   88  A    between atoms: _214  and  _215
REMARK   89  A    between atoms: _214  and  _217
REMARK   90  A    between atoms: _217  and  _218
REMARK   91  A    between atoms: _218  and  _219
REMARK   92  A    between atoms: _221  and  _223
REMARK   93  A    between atoms: _223  and  _224
REMARK   94  A    between atoms: _226  and  _228
REMARK   95  A    between atoms: _228  and  _229
REMARK   96  A    between atoms: _228  and  _231
REMARK   97  A    between atoms: _231  and  _232
REMARK   98  A    between atoms: _235  and  _237
REMARK   99  A    between atoms: _237  and  _238
REMARK  100  A    between atoms: _237  and  _240
REMARK  101  A    between atoms: _240  and  _241
REMARK  102  A    between atoms: _241  and  _242
REMARK  103  A    between atoms: _244  and  _246
REMARK  104  A    between atoms: _246  and  _247
REMARK  105  A    between atoms: _246  and  _249
REMARK  106  A    between atoms: _252  and  _254
REMARK  107  A    between atoms: _254  and  _255
REMARK  108  A    between atoms: _254  and  _257
REMARK  109  A    between atoms: _257  and  _258
REMARK  110  A    between atoms: _264  and  _266
REMARK  111  A    between atoms: _266  and  _267
REMARK  112  A    between atoms: _270  and  _272
REMARK  113  A    between atoms: _272  and  _273
REMARK  114  A    between atoms: _272  and  _275
REMARK  115  A    between atoms: _275  and  _276
REMARK  116  A    between atoms: _276  and  _277
REMARK  117  A    between atoms: _279  and  _281
REMARK  118  A    between atoms: _281  and  _282
REMARK  119  A    between atoms: _284  and  _286
REMARK  120  A    between atoms: _286  and  _287
REMARK  121  A    between atoms: _286  and  _289
REMARK  122  A    between atoms: _289  and  _290
REMARK  123  A    between atoms: _300  and  _302
REMARK  124  A    between atoms: _302  and  _303
REMARK  125  A    between atoms: _302  and  _305
REMARK  126  A    between atoms: _305  and  _306
REMARK  127  A    between atoms: _306  and  _307
REMARK  128  A    between atoms: _307  and  _308
REMARK  129  A    between atoms: _317  and  _319
REMARK  130  A    between atoms: _319  and  _320
REMARK  131  A    between atoms: _319  and  _322
REMARK  132  A    between atoms: _322  and  _323
REMARK  133  A    between atoms: _325  and  _327
REMARK  134  A    between atoms: _327  and  _328
REMARK  135  A    between atoms: _327  and  _330
REMARK  136  A    between atoms: _330  and  _331
REMARK  137  A    between atoms: _334  and  _336
REMARK  138  A    between atoms: _336  and  _337
REMARK  139  A    between atoms: _336  and  _339
REMARK  140  A    between atoms: _339  and  _340
REMARK  141  A    between atoms: _345  and  _346
REMARK  142  A    between atoms: _348  and  _350
REMARK  143  A    between atoms: _350  and  _351
REMARK  144  A    between atoms: _350  and  _353
REMARK  145  A    between atoms: _353  and  _354
REMARK  146  A    between atoms: _360  and  _362
REMARK  147  A    between atoms: _362  and  _363
REMARK  148  A    between atoms: _366  and  _368
REMARK  149  A    between atoms: _368  and  _369
REMARK  150  A    between atoms: _368  and  _371
REMARK  151  A    between atoms: _371  and  _372
REMARK  152  A    between atoms: _375  and  _377
REMARK  153  A    between atoms: _377  and  _378
REMARK  154  A    between atoms: _377  and  _380
REMARK  155  A    between atoms: _380  and  _381
REMARK  156  A    between atoms: _387  and  _389
REMARK  157  A    between atoms: _389  and  _390
REMARK  158  A    between atoms: _389  and  _392
REMARK  159  A    between atoms: _392  and  _393
REMARK  160  A    between atoms: _395  and  _397
REMARK  161  A    between atoms: _397  and  _398
REMARK  162  A    between atoms: _397  and  _400
REMARK  163  A    between atoms: _400  and  _401
REMARK  164  A    between atoms: _401  and  _402
REMARK  165  A    between atoms: _404  and  _406
REMARK  166  A    between atoms: _406  and  _407
REMARK  167  A    between atoms: _406  and  _409
REMARK  168  A    between atoms: _409  and  _410
REMARK  169  A    between atoms: _410  and  _411
REMARK  170  A    between atoms: _416  and  _418
REMARK  171  A    between atoms: _418  and  _419
REMARK  172  A    between atoms: _418  and  _421
REMARK  173  A    between atoms: _423  and  _425
REMARK  174  A    between atoms: _425  and  _426
REMARK  175  A    between atoms: _425  and  _428
REMARK  176  A    between atoms: _428  and  _429
REMARK  177  A    between atoms: _429  and  _430
REMARK  178  A    between atoms: _432  and  _434
REMARK  179  A    between atoms: _434  and  _435
REMARK  180  A    between atoms: _434  and  _437
REMARK  181  A    between atoms: _437  and  _438
REMARK  182  A    between atoms: _441  and  _443
REMARK  183  A    between atoms: _443  and  _444
REMARK  184  A    between atoms: _443  and  _446
REMARK  185  A    between atoms: _449  and  _451
REMARK  186  A    between atoms: _451  and  _452
REMARK  187  A    between atoms: _451  and  _454
REMARK  188  A    between atoms: _454  and  _455
REMARK  189  A    between atoms: _458  and  _460
REMARK  190  A    between atoms: _460  and  _461
REMARK  191  A    between atoms: _464  and  _466
REMARK  192  A    between atoms: _466  and  _467
REMARK  193  A    between atoms: _466  and  _469
REMARK  194  A    between atoms: _469  and  _470
REMARK  195  A    between atoms: _473  and  _475
REMARK  196  A    between atoms: _475  and  _476
REMARK  197  A    between atoms: _475  and  _478
REMARK  198  A    between atoms: _478  and  _479
REMARK  199  A    between atoms: _484  and  _486
REMARK  200  A    between atoms: _486  and  _487
REMARK  201  A    between atoms: _486  and  _489
REMARK  202  A    between atoms: _489  and  _490
REMARK  203  A    between atoms: _490  and  _491
REMARK  204  A    between atoms: _496  and  _498
REMARK  205  A    between atoms: _498  and  _499
REMARK  206  A    between atoms: _498  and  _501
REMARK  207  A    between atoms: _501  and  _502
REMARK  208  A    between atoms: _508  and  _510
REMARK  209  A    between atoms: _510  and  _511
REMARK  210  A    between atoms: _510  and  _513
REMARK  211  A    between atoms: _513  and  _514
REMARK  212  A    between atoms: _517  and  _519
REMARK  213  A    between atoms: _519  and  _520
REMARK  214  A    between atoms: _519  and  _522
REMARK  215  A    between atoms: _522  and  _523
REMARK  216  A    between atoms: _529  and  _531
REMARK  217  A    between atoms: _531  and  _532
REMARK  218  A    between atoms: _531  and  _534
REMARK  219  A    between atoms: _534  and  _535
REMARK  220  A    between atoms: _538  and  _540
REMARK  221  A    between atoms: _540  and  _541
REMARK  222  A    between atoms: _540  and  _543
REMARK  223  A    between atoms: _543  and  _544
REMARK  224  A    between atoms: _547  and  _549
REMARK  225  A    between atoms: _549  and  _550
REMARK  226  A    between atoms: _549  and  _552
REMARK  227  A    between atoms: _552  and  _553
REMARK  228  A    between atoms: _556  and  _558
REMARK  229  A    between atoms: _558  and  _559
REMARK  230  A    between atoms: _558  and  _561
REMARK  231  A    between atoms: _564  and  _566
REMARK  232  A    between atoms: _566  and  _567
REMARK  233  A    between atoms: _566  and  _569
REMARK  234  A    between atoms: _569  and  _570
REMARK  235  A    between atoms: _573  and  _575
REMARK  236  A    between atoms: _575  and  _576
REMARK  237  A    between atoms: _575  and  _578
REMARK  238  A    between atoms: _578  and  _579
REMARK  239  A    between atoms: _586  and  _587
REMARK  240  A    between atoms: _592  and  _594
REMARK  241  A    between atoms: _594  and  _595
REMARK  242  A    between atoms: _594  and  _597
REMARK  243  A    between atoms: _597  and  _598
REMARK  244  A    between atoms: _598  and  _599
REMARK  245  A    between atoms: _601  and  _603
REMARK  246  A    between atoms: _603  and  _604
REMARK  247  A    between atoms: _603  and  _606
REMARK  248  A    between atoms: _606  and  _607
REMARK  249  A    between atoms: _607  and  _608
REMARK  250  A    between atoms: _610  and  _612
REMARK  251  A    between atoms: _612  and  _613
REMARK  252  A    between atoms: _616  and  _618
REMARK  253  A    between atoms: _618  and  _619
REMARK  254  A    between atoms: _618  and  _621
REMARK  255  A    between atoms: _621  and  _622
REMARK  256  A    between atoms: _625  and  _627
REMARK  257  A    between atoms: _627  and  _628
REMARK  258  A    between atoms: _627  and  _630
REMARK  259  A    between atoms: _630  and  _631
REMARK  260  A    between atoms: _634  and  _636
REMARK  261  A    between atoms: _636  and  _637
REMARK  262  A    between atoms: _636  and  _639
REMARK  263  A    between atoms: _639  and  _640
REMARK  264  A    between atoms: _642  and  _644
REMARK  265  A    between atoms: _644  and  _645
REMARK  266  A    between atoms: _644  and  _647
REMARK  267  A    between atoms: _650  and  _652
REMARK  268  A    between atoms: _652  and  _653
REMARK  269  A    between atoms: _652  and  _655
REMARK  270  A    between atoms: _655  and  _656
REMARK  271  A    between atoms: _656  and  _657
REMARK  272  A    between atoms: _662  and  _664
REMARK  273  A    between atoms: _664  and  _665
REMARK  274  A    between atoms: _664  and  _667
REMARK  275  A    between atoms: _671  and  _672
REMARK  276  A    between atoms: _677  and  _679
REMARK  277  A    between atoms: _679  and  _680
REMARK  278  A    between atoms: _679  and  _682
REMARK  279  A    between atoms: _682  and  _683
REMARK  280  A    between atoms: _686  and  _688
REMARK  281  A    between atoms: _688  and  _689
REMARK  282  A    between atoms: _688  and  _691
REMARK  283  A    between atoms: _691  and  _692
REMARK                            x       y       z     vdW  Elec       q    Type
REMARK                         _______ _______ _______ _____ _____    ______ ____
ROOT
ATOM      1  CA  GLN A   1      19.476  -3.693   1.281  0.00  0.00    +0.145 C 
ENDROOT
BRANCH   1   2
ATOM      2  C   GLN A   1      19.057  -2.381   0.627  0.00  0.00    +0.238 C 
ATOM      3  O   GLN A   1      18.237  -1.649   1.168  0.00  0.00    -0.274 OA
ATOM      4  N   CYS A   2      19.618  -2.087  -0.542  0.00  0.00    -0.298 N 
ATOM      5  H   CYS A   2      20.310  -2.744  -0.957  0.00  0.00    +0.150 HD
BRANCH   4   6
ATOM      6  CA  CYS A   2      19.280  -0.859  -1.253  0.00  0.00    +0.149 C 
BRANCH   6   7
ATOM      7  C   CYS A   2      17.789  -0.762  -1.556  0.00  0.00    +0.228 C 
ATOM      8  O   CYS A   2      17.195   0.309  -1.415  0.00  0.00    -0.286 OA
ENDBRANCH   6   7
BRANCH   6   9
ATOM      9  CB  CYS A   2      20.067  -0.754  -2.555  0.00  0.00    +0.096 C 
ATOM     10  SG  CYS A   2      21.821  -0.355  -2.325  0.00  0.00    -0.080 S 
ENDBRANCH   6   9
ENDBRANCH   4   6
ENDBRANCH   1   2
BRANCH   1  11
ATOM     11  N   GLN A   1      19.442  -4.767   0.294  0.00  0.00    -0.238 NA
ATOM     12  H   GLN A   1      20.330  -5.225   0.007  0.00  0.00    +0.142 HD
ENDBRANCH   1  11
BRANCH   1  13
ATOM     13  CB  GLN A   1      20.885  -3.544   1.882  0.00  0.00    +0.036 C 
BRANCH  13  14
ATOM     14  CG  GLN A   1      21.391  -4.769   2.647  0.00  0.00    +0.087 C 
BRANCH  14  15
ATOM     15  CD  GLN A   1      22.167  -5.733   1.767  0.00  0.00    +0.219 C 
ATOM     16  NE2 GLN A   1      23.200  -6.348   2.329  0.00  0.00    -0.329 N 
ATOM     17 HE21 GLN A   1      23.447  -6.150   3.319  0.00  0.00    +0.145 HD
ATOM     18 HE22 GLN A   1      23.762  -7.028   1.779  0.00  0.00    +0.145 HD
ATOM     19  OE1 GLN A   1      21.834  -5.932   0.602  0.00  0.00    -0.275 OA
ENDBRANCH  14  15
ENDBRANCH  13  14
ENDBRANCH   1  13
TORSDOF 8
REMARK  Name = ../refined-set-2016/3b5r/3b5r_pocket.pdb
REMARK  283 active torsions:
REMARK  status: ('A' for Active; 'I' for Inactive)
REMARK    1  A    between atoms: _1  and  _3
REMARK    2  A    between atoms: _3  and  _4
REMARK    3  A    between atoms: _3  and  _6
REMARK    4  A    between atoms: _9  and  _11
REMARK    5  A    between atoms: _11  and  _12
REMARK    6  A    between atoms: _15  and  _17
REMARK    7  A    between atoms: _17  and  _18
REMARK    8  A    between atoms: _17  and  _20
REMARK    9  A    between atoms: _20  and  _21
REMARK   10  A    between atoms: _27  and  _29
REMARK   11  A    between atoms: _29  and  _30
REMARK   12  A    between atoms: _29  and  _32
REMARK   13  A    between atoms: _32  and  _33
REMARK   14  A    between atoms: _36  and  _38
REMARK   15  A    between atoms: _38  and  _39
REMARK   16  A    between atoms: _38  and  _41
REMARK   17  A    between atoms: _41  and  _42
REMARK   18  A    between atoms: _45  and  _47
REMARK   19  A    between atoms: _47  and  _48
REMARK   20  A    between atoms: _47  and  _50
REMARK   21  A    between atoms: _50  and  _51
REMARK   22  A    between atoms: _53  and  _55
REMARK   23  A    between atoms: _55  and  _56
REMARK   24  A    between atoms: _55  and  _58
REMARK   25  A    between atoms: _58  and  _59
REMARK   26  A    between atoms: _61  and  _63
REMARK   27  A    between atoms: _63  and  _64
REMARK   28  A    between atoms: _63  and  _66
REMARK   29  A    between atoms: _66  and  _67
REMARK   30  A    between atoms: _70  and  _72
REMARK   31  A    between atoms: _72  and  _73
REMARK   32  A    between atoms: _72  and  _75
REMARK   33  A    between atoms: _75  and  _76
REMARK   34  A    between atoms: _81  and  _83
REMARK   35  A    between atoms: _83  and  _84
REMARK   36  A    between atoms: _83  and  _86
REMARK   37  A    between atoms: _86  and  _87
REMARK   38  A    between atoms: _87  and  _88
REMARK   39  A    between atoms: _91  and  _93
REMARK   40  A    between atoms: _93  and  _94
REMARK   41  A    between atoms: _93  and  _96
REMARK   42  A    between atoms: _96  and  _97
REMARK   43  A    between atoms: _100  and  _102
REMARK   44  A    between atoms: _102  and  _103
REMARK   45  A    between atoms: _105  and  _107
REMARK   46  A    between atoms: _107  and  _108
REMARK   47  A    between atoms: _107  and  _110
REMARK   48  A    between atoms: _110  and  _111
REMARK   49  A    between atoms: _111  and  _112
REMARK   50  A    between atoms: _115  and  _117
REMARK   51  A    between atoms: _117  and  _118
REMARK   52  A    between atoms: _117  and  _120
REMARK   53  A    between atoms: _120  and  _121
REMARK   54  A    between atoms: _121  and  _122
REMARK   55  A    between atoms: _122  and  _123
REMARK   56  A    between atoms: _132  and  _134
REMARK   57  A    between atoms: _134  and  _135
REMARK   58  A    between atoms: _134  and  _137
REMARK   59  A    between atoms: _137  and  _138
REMARK   60  A    between atoms: _138  and  _139
REMARK   61  A    between atoms: _144  and  _146
REMARK   62  A    between atoms: _146  and  _147
REMARK   63  A    between atoms: _146  and  _149
REMARK   64  A    between atoms: _149  and  _150
REMARK   65  A    between atoms: _153  and  _155
REMARK   66  A    between atoms: _155  and  _156
REMARK   67  A    between atoms: _155  and  _158
REMARK   68  A    between atoms: _158  and  _159
REMARK   69  A    between atoms: _162  and  _164
REMARK   70  A    between atoms: _164  and  _165
REMARK   71  A    between atoms: _164  and  _167
REMARK   72  A    between atoms: _167  and  _168
REMARK   73  A    between atoms: _168  and  _169
REMARK   74  A    between atoms: _174  and  _176
REMARK   75  A    between atoms: _176  and  _177
REMARK   76  A    between atoms: _176  and  _179
REMARK   77  A    between atoms: _179  and  _180
REMARK   78  A    between atoms: _185  and  _186
REMARK   79  A    between atoms: _188  and  _190
REMARK   80  A    between atoms: _190  and  _191
REMARK   81  A    between atoms: _190  and  _193
REMARK   82  A    between atoms: _193  and  _194
REMARK   83  A    between atoms: _196  and  _198
REMARK   84  A    between atoms: _198  and  _199
REMARK   85  A    between atoms: _198  and  _201
REMARK   86  A    between atoms: _201  and  _202
REMARK   87  A    between atoms: _212  and  _214
REMARK   88  A    between atoms: _214  and  _215
REMARK   89  A    between atoms: _214  and  _217
REMARK   90  A    between atoms: _217  and  _218
REMARK   91  A    between atoms: _218  and  _219
REMARK   92  A    between atoms: _221  and  _223
REMARK   93  A    between atoms: _223  and  _224
REMARK   94  A    between atoms: _226  and  _228
REMARK   95  A    between atoms: _228  and  _229
REMARK   96  A    between atoms: _228  and  _231
REMARK   97  A    between atoms: _231  and  _232
REMARK   98  A    between atoms: _235  and  _237
REMARK   99  A    between atoms: _237  and  _238
REMARK  100  A    between atoms: _237  and  _240
REMARK  101  A    between atoms: _240  and  _241
REMARK  102  A    between atoms: _241  and  _242
REMARK  103  A    between atoms: _244  and  _246
REMARK  104  A    between atoms: _246  and  _247
REMARK  105  A    between atoms: _246  and  _249
REMARK  106  A    between atoms: _252  and  _254
REMARK  107  A    between atoms: _254  and  _255
REMARK  108  A    between atoms: _254  and  _257
REMARK  109  A    between atoms: _257  and  _258
REMARK  110  A    between atoms: _264  and  _266
REMARK  111  A    between atoms: _266  and  _267
REMARK  112  A    between atoms: _270  and  _272
REMARK  113  A    between atoms: _272  and  _273
REMARK  114  A    between atoms: _272  and  _275
REMARK  115  A    between atoms: _275  and  _276
REMARK  116  A    between atoms: _276  and  _277
REMARK  117  A    between atoms: _279  and  _281
REMARK  118  A    between atoms: _281  and  _282
REMARK  119  A    between atoms: _284  and  _286
REMARK  120  A    between atoms: _286  and  _287
REMARK  121  A    between atoms: _286  and  _289
REMARK  122  A    between atoms: _289  and  _290
REMARK  123  A    between atoms: _300  and  _302
REMARK  124  A    between atoms: _302  and  _303
REMARK  125  A    between atoms: _302  and  _305
REMARK  126  A    between atoms: _305  and  _306
REMARK  127  A    between atoms: _306  and  _307
REMARK  128  A    between atoms: _307  and  _308
REMARK  129  A    between atoms: _317  and  _319
REMARK  130  A    between atoms: _319  and  _320
REMARK  131  A    between atoms: _319  and  _322
REMARK  132  A    between atoms: _322  and  _323
REMARK  133  A    between atoms: _325  and  _327
REMARK  134  A    between atoms: _327  and  _328
REMARK  135  A    between atoms: _327  and  _330
REMARK  136  A    between atoms: _330  and  _331
REMARK  137  A    between atoms: _334  and  _336
REMARK  138  A    between atoms: _336  and  _337
REMARK  139  A    between atoms: _336  and  _339
REMARK  140  A    between atoms: _339  and  _340
REMARK  141  A    between atoms: _345  and  _346
REMARK  142  A    between atoms: _348  and  _350
REMARK  143  A    between atoms: _350  and  _351
REMARK  144  A    between atoms: _350  and  _353
REMARK  145  A    between atoms: _353  and  _354
REMARK  146  A    between atoms: _360  and  _362
REMARK  147  A    between atoms: _362  and  _363
REMARK  148  A    between atoms: _366  and  _368
REMARK  149  A    between atoms: _368  and  _369
REMARK  150  A    between atoms: _368  and  _371
REMARK  151  A    between atoms: _371  and  _372
REMARK  152  A    between atoms: _375  and  _377
REMARK  153  A    between atoms: _377  and  _378
REMARK  154  A    between atoms: _377  and  _380
REMARK  155  A    between atoms: _380  and  _381
REMARK  156  A    between atoms: _387  and  _389
REMARK  157  A    between atoms: _389  and  _390
REMARK  158  A    between atoms: _389  and  _392
REMARK  159  A    between atoms: _392  and  _393
REMARK  160  A    between atoms: _395  and  _397
REMARK  161  A    between atoms: _397  and  _398
REMARK  162  A    between atoms: _397  and  _400
REMARK  163  A    between atoms: _400  and  _401
REMARK  164  A    between atoms: _401  and  _402
REMARK  165  A    between atoms: _404  and  _406
REMARK  166  A    between atoms: _406  and  _407
REMARK  167  A    between atoms: _406  and  _409
REMARK  168  A    between atoms: _409  and  _410
REMARK  169  A    between atoms: _410  and  _411
REMARK  170  A    between atoms: _416  and  _418
REMARK  171  A    between atoms: _418  and  _419
REMARK  172  A    between atoms: _418  and  _421
REMARK  173  A    between atoms: _423  and  _425
REMARK  174  A    between atoms: _425  and  _426
REMARK  175  A    between atoms: _425  and  _428
REMARK  176  A    between atoms: _428  and  _429
REMARK  177  A    between atoms: _429  and  _430
REMARK  178  A    between atoms: _432  and  _434
REMARK  179  A    between atoms: _434  and  _435
REMARK  180  A    between atoms: _434  and  _437
REMARK  181  A    between atoms: _437  and  _438
REMARK  182  A    between atoms: _441  and  _443
REMARK  183  A    between atoms: _443  and  _444
REMARK  184  A    between atoms: _443  and  _446
REMARK  185  A    between atoms: _449  and  _451
REMARK  186  A    between atoms: _451  and  _452
REMARK  187  A    between atoms: _451  and  _454
REMARK  188  A    between atoms: _454  and  _455
REMARK  189  A    between atoms: _458  and  _460
REMARK  190  A    between atoms: _460  and  _461
REMARK  191  A    between atoms: _464  and  _466
REMARK  192  A    between atoms: _466  and  _467
REMARK  193  A    between atoms: _466  and  _469
REMARK  194  A    between atoms: _469  and  _470
REMARK  195  A    between atoms: _473  and  _475
REMARK  196  A    between atoms: _475  and  _476
REMARK  197  A    between atoms: _475  and  _478
REMARK  198  A    between atoms: _478  and  _479
REMARK  199  A    between atoms: _484  and  _486
REMARK  200  A    between atoms: _486  and  _487
REMARK  201  A    between atoms: _486  and  _489
REMARK  202  A    between atoms: _489  and  _490
REMARK  203  A    between atoms: _490  and  _491
REMARK  204  A    between atoms: _496  and  _498
REMARK  205  A    between atoms: _498  and  _499
REMARK  206  A    between atoms: _498  and  _501
REMARK  207  A    between atoms: _501  and  _502
REMARK  208  A    between atoms: _508  and  _510
REMARK  209  A    between atoms: _510  and  _511
REMARK  210  A    between atoms: _510  and  _513
REMARK  211  A    between atoms: _513  and  _514
REMARK  212  A    between atoms: _517  and  _519
REMARK  213  A    between atoms: _519  and  _520
REMARK  214  A    between atoms: _519  and  _522
REMARK  215  A    between atoms: _522  and  _523
REMARK  216  A    between atoms: _529  and  _531
REMARK  217  A    between atoms: _531  and  _532
REMARK  218  A    between atoms: _531  and  _534
REMARK  219  A    between atoms: _534  and  _535
REMARK  220  A    between atoms: _538  and  _540
REMARK  221  A    between atoms: _540  and  _541
REMARK  222  A    between atoms: _540  and  _543
REMARK  223  A    between atoms: _543  and  _544
REMARK  224  A    between atoms: _547  and  _549
REMARK  225  A    between atoms: _549  and  _550
REMARK  226  A    between atoms: _549  and  _552
REMARK  227  A    between atoms: _552  and  _553
REMARK  228  A    between atoms: _556  and  _558
REMARK  229  A    between atoms: _558  and  _559
REMARK  230  A    between atoms: _558  and  _561
REMARK  231  A    between atoms: _564  and  _566
REMARK  232  A    between atoms: _566  and  _567
REMARK  233  A    between atoms: _566  and  _569
REMARK  234  A    between atoms: _569  and  _570
REMARK  235  A    between atoms: _573  and  _575
REMARK  236  A    between atoms: _575  and  _576
REMARK  237  A    between atoms: _575  and  _578
REMARK  238  A    between atoms: _578  and  _579
REMARK  239  A    between atoms: _586  and  _587
REMARK  240  A    between atoms: _592  and  _594
REMARK  241  A    between atoms: _594  and  _595
REMARK  242  A    between atoms: _594  and  _597
REMARK  243  A    between atoms: _597  and  _598
REMARK  244  A    between atoms: _598  and  _599
REMARK  245  A    between atoms: _601  and  _603
REMARK  246  A    between atoms: _603  and  _604
REMARK  247  A    between atoms: _603  and  _606
REMARK  248  A    between atoms: _606  and  _607
REMARK  249  A    between atoms: _607  and  _608
REMARK  250  A    between atoms: _610  and  _612
REMARK  251  A    between atoms: _612  and  _613
REMARK  252  A    between atoms: _616  and  _618
REMARK  253  A    between atoms: _618  and  _619
REMARK  254  A    between atoms: _618  and  _621
REMARK  255  A    between atoms: _621  and  _622
REMARK  256  A    between atoms: _625  and  _627
REMARK  257  A    between atoms: _627  and  _628
REMARK  258  A    between atoms: _627  and  _630
REMARK  259  A    between atoms: _630  and  _631
REMARK  260  A    between atoms: _634  and  _636
REMARK  261  A    between atoms: _636  and  _637
REMARK  262  A    between atoms: _636  and  _639
REMARK  263  A    between atoms: _639  and  _640
REMARK  264  A    between atoms: _642  and  _644
REMARK  265  A    between atoms: _644  and  _645
REMARK  266  A    between atoms: _644  and  _647
REMARK  267  A    between atoms: _650  and  _652
REMARK  268  A    between atoms: _652  and  _653
REMARK  269  A    between atoms: _652  and  _655
REMARK  270  A    between atoms: _655  and  _656
REMARK  271  A    between atoms: _656  and  _657
REMARK  272  A    between atoms: _662  and  _664
REMARK  273  A    between atoms: _664  and  _665
REMARK  274  A    between atoms: _664  and  _667
REMARK  275  A    between atoms: _671  and  _672
REMARK  276  A    between atoms: _677  and  _679
REMARK  277  A    between atoms: _679  and  _680
REMARK  278  A    between atoms: _679  and  _682
REMARK  279  A    between atoms: _682  and  _683
REMARK  280  A    between atoms: _686  and  _688
REMARK  281  A    between atoms: _688  and  _689
REMARK  282  A    between atoms: _688  and  _691
REMARK  283  A    between atoms: _691  and  _692
REMARK                            x       y       z     vdW  Elec       q    Type
REMARK                         _______ _______ _______ _____ _____    ______ ____
ROOT
ATOM      1  CA  MET A   1      16.119   1.646   1.778  0.00  0.00    +0.134 C 
ENDROOT
BRANCH   1   2
ATOM      2  N   MET A   1      15.928   0.232   1.465  0.00  0.00    -0.239 NA
ATOM      3  H   MET A   1      16.701  -0.303   1.020  0.00  0.00    +0.142 HD
ENDBRANCH   1   2
BRANCH   1   4
ATOM      4  C   MET A   1      15.324   2.538   0.815  0.00  0.00    +0.224 C 
ATOM      5  O   MET A   1      14.944   3.657   1.163  0.00  0.00    -0.287 OA
ENDBRANCH   1   4
BRANCH   1   6
ATOM      6  CB  MET A   1      17.610   2.005   1.731  0.00  0.00    +0.037 C 
BRANCH   6   7
ATOM      7  CG  MET A   1      18.437   1.270   2.773  0.00  0.00    +0.059 C 
BRANCH   7   8
ATOM      8  SD  MET A   1      20.145   1.852   2.932  0.00  0.00    -0.139 S 
ATOM      9  CE  MET A   1      20.903   1.046   1.527  0.00  0.00    +0.069 C 
ENDBRANCH   7   8
ENDBRANCH   6   7
ENDBRANCH   1   6
TORSDOF 5
REMARK  Name = ../refined-set-2016/3b5r/3b5r_pocket.pdb
REMARK  283 active torsions:
REMARK  status: ('A' for Active; 'I' for Inactive)
REMARK    1  A    between atoms: _1  and  _3
REMARK    2  A    between atoms: _3  and  _4
REMARK    3  A    between atoms: _3  and  _6
REMARK    4  A    between atoms: _9  and  _11
REMARK    5  A    between atoms: _11  and  _12
REMARK    6  A    between atoms: _15  and  _17
REMARK    7  A    between atoms: _17  and  _18
REMARK    8  A    between atoms: _17  and  _20
REMARK    9  A    between atoms: _20  and  _21
REMARK   10  A    between atoms: _27  and  _29
REMARK   11  A    between atoms: _29  and  _30
REMARK   12  A    between atoms: _29  and  _32
REMARK   13  A    between atoms: _32  and  _33
REMARK   14  A    between atoms: _36  and  _38
REMARK   15  A    between atoms: _38  and  _39
REMARK   16  A    between atoms: _38  and  _41
REMARK   17  A    between atoms: _41  and  _42
REMARK   18  A    between atoms: _45  and  _47
REMARK   19  A    between atoms: _47  and  _48
REMARK   20  A    between atoms: _47  and  _50
REMARK   21  A    between atoms: _50  and  _51
REMARK   22  A    between atoms: _53  and  _55
REMARK   23  A    between atoms: _55  and  _56
REMARK   24  A    between atoms: _55  and  _58
REMARK   25  A    between atoms: _58  and  _59
REMARK   26  A    between atoms: _61  and  _63
REMARK   27  A    between atoms: _63  and  _64
REMARK   28  A    between atoms: _63  and  _66
REMARK   29  A    between atoms: _66  and  _67
REMARK   30  A    between atoms: _70  and  _72
REMARK   31  A    between atoms: _72  and  _73
REMARK   32  A    between atoms: _72  and  _75
REMARK   33  A    between atoms: _75  and  _76
REMARK   34  A    between atoms: _81  and  _83
REMARK   35  A    between atoms: _83  and  _84
REMARK   36  A    between atoms: _83  and  _86
REMARK   37  A    between atoms: _86  and  _87
REMARK   38  A    between atoms: _87  and  _88
REMARK   39  A    between atoms: _91  and  _93
REMARK   40  A    between atoms: _93  and  _94
REMARK   41  A    between atoms: _93  and  _96
REMARK   42  A    between atoms: _96  and  _97
REMARK   43  A    between atoms: _100  and  _102
REMARK   44  A    between atoms: _102  and  _103
REMARK   45  A    between atoms: _105  and  _107
REMARK   46  A    between atoms: _107  and  _108
REMARK   47  A    between atoms: _107  and  _110
REMARK   48  A    between atoms: _110  and  _111
REMARK   49  A    between atoms: _111  and  _112
REMARK   50  A    between atoms: _115  and  _117
REMARK   51  A    between atoms: _117  and  _118
REMARK   52  A    between atoms: _117  and  _120
REMARK   53  A    between atoms: _120  and  _121
REMARK   54  A    between atoms: _121  and  _122
REMARK   55  A    between atoms: _122  and  _123
REMARK   56  A    between atoms: _132  and  _134
REMARK   57  A    between atoms: _134  and  _135
REMARK   58  A    between atoms: _134  and  _137
REMARK   59  A    between atoms: _137  and  _138
REMARK   60  A    between atoms: _138  and  _139
REMARK   61  A    between atoms: _144  and  _146
REMARK   62  A    between atoms: _146  and  _147
REMARK   63  A    between atoms: _146  and  _149
REMARK   64  A    between atoms: _149  and  _150
REMARK   65  A    between atoms: _153  and  _155
REMARK   66  A    between atoms: _155  and  _156
REMARK   67  A    between atoms: _155  and  _158
REMARK   68  A    between atoms: _158  and  _159
REMARK   69  A    between atoms: _162  and  _164
REMARK   70  A    between atoms: _164  and  _165
REMARK   71  A    between atoms: _164  and  _167
REMARK   72  A    between atoms: _167  and  _168
REMARK   73  A    between atoms: _168  and  _169
REMARK   74  A    between atoms: _174  and  _176
REMARK   75  A    between atoms: _176  and  _177
REMARK   76  A    between atoms: _176  and  _179
REMARK   77  A    between atoms: _179  and  _180
REMARK   78  A    between atoms: _185  and  _186
REMARK   79  A    between atoms: _188  and  _190
REMARK   80  A    between atoms: _190  and  _191
REMARK   81  A    between atoms: _190  and  _193
REMARK   82  A    between atoms: _193  and  _194
REMARK   83  A    between atoms: _196  and  _198
REMARK   84  A    between atoms: _198  and  _199
REMARK   85  A    between atoms: _198  and  _201
REMARK   86  A    between atoms: _201  and  _202
REMARK   87  A    between atoms: _212  and  _214
REMARK   88  A    between atoms: _214  and  _215
REMARK   89  A    between atoms: _214  and  _217
REMARK   90  A    between atoms: _217  and  _218
REMARK   91  A    between atoms: _218  and  _219
REMARK   92  A    between atoms: _221  and  _223
REMARK   93  A    between atoms: _223  and  _224
REMARK   94  A    between atoms: _226  and  _228
REMARK   95  A    between atoms: _228  and  _229
REMARK   96  A    between atoms: _228  and  _231
REMARK   97  A    between atoms: _231  and  _232
REMARK   98  A    between atoms: _235  and  _237
REMARK   99  A    between atoms: _237  and  _238
REMARK  100  A    between atoms: _237  and  _240
REMARK  101  A    between atoms: _240  and  _241
REMARK  102  A    between atoms: _241  and  _242
REMARK  103  A    between atoms: _244  and  _246
REMARK  104  A    between atoms: _246  and  _247
REMARK  105  A    between atoms: _246  and  _249
REMARK  106  A    between atoms: _252  and  _254
REMARK  107  A    between atoms: _254  and  _255
REMARK  108  A    between atoms: _254  and  _257
REMARK  109  A    between atoms: _257  and  _258
REMARK  110  A    between atoms: _264  and  _266
REMARK  111  A    between atoms: _266  and  _267
REMARK  112  A    between atoms: _270  and  _272
REMARK  113  A    between atoms: _272  and  _273
REMARK  114  A    between atoms: _272  and  _275
REMARK  115  A    between atoms: _275  and  _276
REMARK  116  A    between atoms: _276  and  _277
REMARK  117  A    between atoms: _279  and  _281
REMARK  118  A    between atoms: _281  and  _282
REMARK  119  A    between atoms: _284  and  _286
REMARK  120  A    between atoms: _286  and  _287
REMARK  121  A    between atoms: _286  and  _289
REMARK  122  A    between atoms: _289  and  _290
REMARK  123  A    between atoms: _300  and  _302
REMARK  124  A    between atoms: _302  and  _303
REMARK  125  A    between atoms: _302  and  _305
REMARK  126  A    between atoms: _305  and  _306
REMARK  127  A    between atoms: _306  and  _307
REMARK  128  A    between atoms: _307  and  _308
REMARK  129  A    between atoms: _317  and  _319
REMARK  130  A    between atoms: _319  and  _320
REMARK  131  A    between atoms: _319  and  _322
REMARK  132  A    between atoms: _322  and  _323
REMARK  133  A    between atoms: _325  and  _327
REMARK  134  A    between atoms: _327  and  _328
REMARK  135  A    between atoms: _327  and  _330
REMARK  136  A    between atoms: _330  and  _331
REMARK  137  A    between atoms: _334  and  _336
REMARK  138  A    between atoms: _336  and  _337
REMARK  139  A    between atoms: _336  and  _339
REMARK  140  A    between atoms: _339  and  _340
REMARK  141  A    between atoms: _345  and  _346
REMARK  142  A    between atoms: _348  and  _350
REMARK  143  A    between atoms: _350  and  _351
REMARK  144  A    between atoms: _350  and  _353
REMARK  145  A    between atoms: _353  and  _354
REMARK  146  A    between atoms: _360  and  _362
REMARK  147  A    between atoms: _362  and  _363
REMARK  148  A    between atoms: _366  and  _368
REMARK  149  A    between atoms: _368  and  _369
REMARK  150  A    between atoms: _368  and  _371
REMARK  151  A    between atoms: _371  and  _372
REMARK  152  A    between atoms: _375  and  _377
REMARK  153  A    between atoms: _377  and  _378
REMARK  154  A    between atoms: _377  and  _380
REMARK  155  A    between atoms: _380  and  _381
REMARK  156  A    between atoms: _387  and  _389
REMARK  157  A    between atoms: _389  and  _390
REMARK  158  A    between atoms: _389  and  _392
REMARK  159  A    between atoms: _392  and  _393
REMARK  160  A    between atoms: _395  and  _397
REMARK  161  A    between atoms: _397  and  _398
REMARK  162  A    between atoms: _397  and  _400
REMARK  163  A    between atoms: _400  and  _401
REMARK  164  A    between atoms: _401  and  _402
REMARK  165  A    between atoms: _404  and  _406
REMARK  166  A    between atoms: _406  and  _407
REMARK  167  A    between atoms: _406  and  _409
REMARK  168  A    between atoms: _409  and  _410
REMARK  169  A    between atoms: _410  and  _411
REMARK  170  A    between atoms: _416  and  _418
REMARK  171  A    between atoms: _418  and  _419
REMARK  172  A    between atoms: _418  and  _421
REMARK  173  A    between atoms: _423  and  _425
REMARK  174  A    between atoms: _425  and  _426
REMARK  175  A    between atoms: _425  and  _428
REMARK  176  A    between atoms: _428  and  _429
REMARK  177  A    between atoms: _429  and  _430
REMARK  178  A    between atoms: _432  and  _434
REMARK  179  A    between atoms: _434  and  _435
REMARK  180  A    between atoms: _434  and  _437
REMARK  181  A    between atoms: _437  and  _438
REMARK  182  A    between atoms: _441  and  _443
REMARK  183  A    between atoms: _443  and  _444
REMARK  184  A    between atoms: _443  and  _446
REMARK  185  A    between atoms: _449  and  _451
REMARK  186  A    between atoms: _451  and  _452
REMARK  187  A    between atoms: _451  and  _454
REMARK  188  A    between atoms: _454  and  _455
REMARK  189  A    between atoms: _458  and  _460
REMARK  190  A    between atoms: _460  and  _461
REMARK  191  A    between atoms: _464  and  _466
REMARK  192  A    between atoms: _466  and  _467
REMARK  193  A    between atoms: _466  and  _469
REMARK  194  A    between atoms: _469  and  _470
REMARK  195  A    between atoms: _473  and  _475
REMARK  196  A    between atoms: _475  and  _476
REMARK  197  A    between atoms: _475  and  _478
REMARK  198  A    between atoms: _478  and  _479
REMARK  199  A    between atoms: _484  and  _486
REMARK  200  A    between atoms: _486  and  _487
REMARK  201  A    between atoms: _486  and  _489
REMARK  202  A    between atoms: _489  and  _490
REMARK  203  A    between atoms: _490  and  _491
REMARK  204  A    between atoms: _496  and  _498
REMARK  205  A    between atoms: _498  and  _499
REMARK  206  A    between atoms: _498  and  _501
REMARK  207  A    between atoms: _501  and  _502
REMARK  208  A    between atoms: _508  and  _510
REMARK  209  A    between atoms: _510  and  _511
REMARK  210  A    between atoms: _510  and  _513
REMARK  211  A    between atoms: _513  and  _514
REMARK  212  A    between atoms: _517  and  _519
REMARK  213  A    between atoms: _519  and  _520
REMARK  214  A    between atoms: _519  and  _522
REMARK  215  A    between atoms: _522  and  _523
REMARK  216  A    between atoms: _529  and  _531
REMARK  217  A    between atoms: _531  and  _532
REMARK  218  A    between atoms: _531  and  _534
REMARK  219  A    between atoms: _534  and  _535
REMARK  220  A    between atoms: _538  and  _540
REMARK  221  A    between atoms: _540  and  _541
REMARK  222  A    between atoms: _540  and  _543
REMARK  223  A    between atoms: _543  and  _544
REMARK  224  A    between atoms: _547  and  _549
REMARK  225  A    between atoms: _549  and  _550
REMARK  226  A    between atoms: _549  and  _552
REMARK  227  A    between atoms: _552  and  _553
REMARK  228  A    between atoms: _556  and  _558
REMARK  229  A    between atoms: _558  and  _559
REMARK  230  A    between atoms: _558  and  _561
REMARK  231  A    between atoms: _564  and  _566
REMARK  232  A    between atoms: _566  and  _567
REMARK  233  A    between atoms: _566  and  _569
REMARK  234  A    between atoms: _569  and  _570
REMARK  235  A    between atoms: _573  and  _575
REMARK  236  A    between atoms: _575  and  _576
REMARK  237  A    between atoms: _575  and  _578
REMARK  238  A    between atoms: _578  and  _579
REMARK  239  A    between atoms: _586  and  _587
REMARK  240  A    between atoms: _592  and  _594
REMARK  241  A    between atoms: _594  and  _595
REMARK  242  A    between atoms: _594  and  _597
REMARK  243  A    between atoms: _597  and  _598
REMARK  244  A    between atoms: _598  and  _599
REMARK  245  A    between atoms: _601  and  _603
REMARK  246  A    between atoms: _603  and  _604
REMARK  247  A    between atoms: _603  and  _606
REMARK  248  A    between atoms: _606  and  _607
REMARK  249  A    between atoms: _607  and  _608
REMARK  250  A    between atoms: _610  and  _612
REMARK  251  A    between atoms: _612  and  _613
REMARK  252  A    between atoms: _616  and  _618
REMARK  253  A    between atoms: _618  and  _619
REMARK  254  A    between atoms: _618  and  _621
REMARK  255  A    between atoms: _621  and  _622
REMARK  256  A    between atoms: _625  and  _627
REMARK  257  A    between atoms: _627  and  _628
REMARK  258  A    between atoms: _627  and  _630
REMARK  259  A    between atoms: _630  and  _631
REMARK  260  A    between atoms: _634  and  _636
REMARK  261  A    between atoms: _636  and  _637
REMARK  262  A    between atoms: _636  and  _639
REMARK  263  A    between atoms: _639  and  _640
REMARK  264  A    between atoms: _642  and  _644
REMARK  265  A    between atoms: _644  and  _645
REMARK  266  A    between atoms: _644  and  _647
REMARK  267  A    between atoms: _650  and  _652
REMARK  268  A    between atoms: _652  and  _653
REMARK  269  A    between atoms: _652  and  _655
REMARK  270  A    between atoms: _655  and  _656
REMARK  271  A    between atoms: _656  and  _657
REMARK  272  A    between atoms: _662  and  _664
REMARK  273  A    between atoms: _664  and  _665
REMARK  274  A    between atoms: _664  and  _667
REMARK  275  A    between atoms: _671  and  _672
REMARK  276  A    between atoms: _677  and  _679
REMARK  277  A    between atoms: _679  and  _680
REMARK  278  A    between atoms: _679  and  _682
REMARK  279  A    between atoms: _682  and  _683
REMARK  280  A    between atoms: _686  and  _688
REMARK  281  A    between atoms: _688  and  _689
REMARK  282  A    between atoms: _688  and  _691
REMARK  283  A    between atoms: _691  and  _692
REMARK                            x       y       z     vdW  Elec       q    Type
REMARK                         _______ _______ _______ _____ _____    ______ ____
ROOT
ATOM      1  CA  LEU A   1      11.942   3.502   3.357  0.00  0.00    +0.133 C 
ENDROOT
BRANCH   1   2
ATOM      2  N   LEU A   1      11.930   2.618   2.190  0.00  0.00    -0.239 NA
ATOM      3  H   LEU A   1      12.766   2.030   1.998  0.00  0.00    +0.142 HD
ENDBRANCH   1   2
BRANCH   1   4
ATOM      4  C   LEU A   1      11.823   4.941   2.870  0.00  0.00    +0.224 C 
ATOM      5  O   LEU A   1      11.095   5.754   3.441  0.00  0.00    -0.287 OA
ENDBRANCH   1   4
BRANCH   1   6
ATOM      6  CB  LEU A   1      13.255   3.356   4.129  0.00  0.00    +0.025 C 
BRANCH   6   7
ATOM      7  CG  LEU A   1      13.511   4.429   5.196  0.00  0.00    +0.002 C 
ATOM      8  CD2 LEU A   1      12.556   4.221   6.357  0.00  0.00    +0.000 C 
ATOM      9  CD1 LEU A   1      14.950   4.357   5.683  0.00  0.00    +0.000 C 
ENDBRANCH   6   7
ENDBRANCH   1   6
TORSDOF 4
REMARK  Name = ../refined-set-2016/3b5r/3b5r_pocket.pdb
REMARK  283 active torsions:
REMARK  status: ('A' for Active; 'I' for Inactive)
REMARK    1  A    between atoms: _1  and  _3
REMARK    2  A    between atoms: _3  and  _4
REMARK    3  A    between atoms: _3  and  _6
REMARK    4  A    between atoms: _9  and  _11
REMARK    5  A    between atoms: _11  and  _12
REMARK    6  A    between atoms: _15  and  _17
REMARK    7  A    between atoms: _17  and  _18
REMARK    8  A    between atoms: _17  and  _20
REMARK    9  A    between atoms: _20  and  _21
REMARK   10  A    between atoms: _27  and  _29
REMARK   11  A    between atoms: _29  and  _30
REMARK   12  A    between atoms: _29  and  _32
REMARK   13  A    between atoms: _32  and  _33
REMARK   14  A    between atoms: _36  and  _38
REMARK   15  A    between atoms: _38  and  _39
REMARK   16  A    between atoms: _38  and  _41
REMARK   17  A    between atoms: _41  and  _42
REMARK   18  A    between atoms: _45  and  _47
REMARK   19  A    between atoms: _47  and  _48
REMARK   20  A    between atoms: _47  and  _50
REMARK   21  A    between atoms: _50  and  _51
REMARK   22  A    between atoms: _53  and  _55
REMARK   23  A    between atoms: _55  and  _56
REMARK   24  A    between atoms: _55  and  _58
REMARK   25  A    between atoms: _58  and  _59
REMARK   26  A    between atoms: _61  and  _63
REMARK   27  A    between atoms: _63  and  _64
REMARK   28  A    between atoms: _63  and  _66
REMARK   29  A    between atoms: _66  and  _67
REMARK   30  A    between atoms: _70  and  _72
REMARK   31  A    between atoms: _72  and  _73
REMARK   32  A    between atoms: _72  and  _75
REMARK   33  A    between atoms: _75  and  _76
REMARK   34  A    between atoms: _81  and  _83
REMARK   35  A    between atoms: _83  and  _84
REMARK   36  A    between atoms: _83  and  _86
REMARK   37  A    between atoms: _86  and  _87
REMARK   38  A    between atoms: _87  and  _88
REMARK   39  A    between atoms: _91  and  _93
REMARK   40  A    between atoms: _93  and  _94
REMARK   41  A    between atoms: _93  and  _96
REMARK   42  A    between atoms: _96  and  _97
REMARK   43  A    between atoms: _100  and  _102
REMARK   44  A    between atoms: _102  and  _103
REMARK   45  A    between atoms: _105  and  _107
REMARK   46  A    between atoms: _107  and  _108
REMARK   47  A    between atoms: _107  and  _110
REMARK   48  A    between atoms: _110  and  _111
REMARK   49  A    between atoms: _111  and  _112
REMARK   50  A    between atoms: _115  and  _117
REMARK   51  A    between atoms: _117  and  _118
REMARK   52  A    between atoms: _117  and  _120
REMARK   53  A    between atoms: _120  and  _121
REMARK   54  A    between atoms: _121  and  _122
REMARK   55  A    between atoms: _122  and  _123
REMARK   56  A    between atoms: _132  and  _134
REMARK   57  A    between atoms: _134  and  _135
REMARK   58  A    between atoms: _134  and  _137
REMARK   59  A    between atoms: _137  and  _138
REMARK   60  A    between atoms: _138  and  _139
REMARK   61  A    between atoms: _144  and  _146
REMARK   62  A    between atoms: _146  and  _147
REMARK   63  A    between atoms: _146  and  _149
REMARK   64  A    between atoms: _149  and  _150
REMARK   65  A    between atoms: _153  and  _155
REMARK   66  A    between atoms: _155  and  _156
REMARK   67  A    between atoms: _155  and  _158
REMARK   68  A    between atoms: _158  and  _159
REMARK   69  A    between atoms: _162  and  _164
REMARK   70  A    between atoms: _164  and  _165
REMARK   71  A    between atoms: _164  and  _167
REMARK   72  A    between atoms: _167  and  _168
REMARK   73  A    between atoms: _168  and  _169
REMARK   74  A    between atoms: _174  and  _176
REMARK   75  A    between atoms: _176  and  _177
REMARK   76  A    between atoms: _176  and  _179
REMARK   77  A    between atoms: _179  and  _180
REMARK   78  A    between atoms: _185  and  _186
REMARK   79  A    between atoms: _188  and  _190
REMARK   80  A    between atoms: _190  and  _191
REMARK   81  A    between atoms: _190  and  _193
REMARK   82  A    between atoms: _193  and  _194
REMARK   83  A    between atoms: _196  and  _198
REMARK   84  A    between atoms: _198  and  _199
REMARK   85  A    between atoms: _198  and  _201
REMARK   86  A    between atoms: _201  and  _202
REMARK   87  A    between atoms: _212  and  _214
REMARK   88  A    between atoms: _214  and  _215
REMARK   89  A    between atoms: _214  and  _217
REMARK   90  A    between atoms: _217  and  _218
REMARK   91  A    between atoms: _218  and  _219
REMARK   92  A    between atoms: _221  and  _223
REMARK   93  A    between atoms: _223  and  _224
REMARK   94  A    between atoms: _226  and  _228
REMARK   95  A    between atoms: _228  and  _229
REMARK   96  A    between atoms: _228  and  _231
REMARK   97  A    between atoms: _231  and  _232
REMARK   98  A    between atoms: _235  and  _237
REMARK   99  A    between atoms: _237  and  _238
REMARK  100  A    between atoms: _237  and  _240
REMARK  101  A    between atoms: _240  and  _241
REMARK  102  A    between atoms: _241  and  _242
REMARK  103  A    between atoms: _244  and  _246
REMARK  104  A    between atoms: _246  and  _247
REMARK  105  A    between atoms: _246  and  _249
REMARK  106  A    between atoms: _252  and  _254
REMARK  107  A    between atoms: _254  and  _255
REMARK  108  A    between atoms: _254  and  _257
REMARK  109  A    between atoms: _257  and  _258
REMARK  110  A    between atoms: _264  and  _266
REMARK  111  A    between atoms: _266  and  _267
REMARK  112  A    between atoms: _270  and  _272
REMARK  113  A    between atoms: _272  and  _273
REMARK  114  A    between atoms: _272  and  _275
REMARK  115  A    between atoms: _275  and  _276
REMARK  116  A    between atoms: _276  and  _277
REMARK  117  A    between atoms: _279  and  _281
REMARK  118  A    between atoms: _281  and  _282
REMARK  119  A    between atoms: _284  and  _286
REMARK  120  A    between atoms: _286  and  _287
REMARK  121  A    between atoms: _286  and  _289
REMARK  122  A    between atoms: _289  and  _290
REMARK  123  A    between atoms: _300  and  _302
REMARK  124  A    between atoms: _302  and  _303
REMARK  125  A    between atoms: _302  and  _305
REMARK  126  A    between atoms: _305  and  _306
REMARK  127  A    between atoms: _306  and  _307
REMARK  128  A    between atoms: _307  and  _308
REMARK  129  A    between atoms: _317  and  _319
REMARK  130  A    between atoms: _319  and  _320
REMARK  131  A    between atoms: _319  and  _322
REMARK  132  A    between atoms: _322  and  _323
REMARK  133  A    between atoms: _325  and  _327
REMARK  134  A    between atoms: _327  and  _328
REMARK  135  A    between atoms: _327  and  _330
REMARK  136  A    between atoms: _330  and  _331
REMARK  137  A    between atoms: _334  and  _336
REMARK  138  A    between atoms: _336  and  _337
REMARK  139  A    between atoms: _336  and  _339
REMARK  140  A    between atoms: _339  and  _340
REMARK  141  A    between atoms: _345  and  _346
REMARK  142  A    between atoms: _348  and  _350
REMARK  143  A    between atoms: _350  and  _351
REMARK  144  A    between atoms: _350  and  _353
REMARK  145  A    between atoms: _353  and  _354
REMARK  146  A    between atoms: _360  and  _362
REMARK  147  A    between atoms: _362  and  _363
REMARK  148  A    between atoms: _366  and  _368
REMARK  149  A    between atoms: _368  and  _369
REMARK  150  A    between atoms: _368  and  _371
REMARK  151  A    between atoms: _371  and  _372
REMARK  152  A    between atoms: _375  and  _377
REMARK  153  A    between atoms: _377  and  _378
REMARK  154  A    between atoms: _377  and  _380
REMARK  155  A    between atoms: _380  and  _381
REMARK  156  A    between atoms: _387  and  _389
REMARK  157  A    between atoms: _389  and  _390
REMARK  158  A    between atoms: _389  and  _392
REMARK  159  A    between atoms: _392  and  _393
REMARK  160  A    between atoms: _395  and  _397
REMARK  161  A    between atoms: _397  and  _398
REMARK  162  A    between atoms: _397  and  _400
REMARK  163  A    between atoms: _400  and  _401
REMARK  164  A    between atoms: _401  and  _402
REMARK  165  A    between atoms: _404  and  _406
REMARK  166  A    between atoms: _406  and  _407
REMARK  167  A    between atoms: _406  and  _409
REMARK  168  A    between atoms: _409  and  _410
REMARK  169  A    between atoms: _410  and  _411
REMARK  170  A    between atoms: _416  and  _418
REMARK  171  A    between atoms: _418  and  _419
REMARK  172  A    between atoms: _418  and  _421
REMARK  173  A    between atoms: _423  and  _425
REMARK  174  A    between atoms: _425  and  _426
REMARK  175  A    between atoms: _425  and  _428
REMARK  176  A    between atoms: _428  and  _429
REMARK  177  A    between atoms: _429  and  _430
REMARK  178  A    between atoms: _432  and  _434
REMARK  179  A    between atoms: _434  and  _435
REMARK  180  A    between atoms: _434  and  _437
REMARK  181  A    between atoms: _437  and  _438
REMARK  182  A    between atoms: _441  and  _443
REMARK  183  A    between atoms: _443  and  _444
REMARK  184  A    between atoms: _443  and  _446
REMARK  185  A    between atoms: _449  and  _451
REMARK  186  A    between atoms: _451  and  _452
REMARK  187  A    between atoms: _451  and  _454
REMARK  188  A    between atoms: _454  and  _455
REMARK  189  A    between atoms: _458  and  _460
REMARK  190  A    between atoms: _460  and  _461
REMARK  191  A    between atoms: _464  and  _466
REMARK  192  A    between atoms: _466  and  _467
REMARK  193  A    between atoms: _466  and  _469
REMARK  194  A    between atoms: _469  and  _470
REMARK  195  A    between atoms: _473  and  _475
REMARK  196  A    between atoms: _475  and  _476
REMARK  197  A    between atoms: _475  and  _478
REMARK  198  A    between atoms: _478  and  _479
REMARK  199  A    between atoms: _484  and  _486
REMARK  200  A    between atoms: _486  and  _487
REMARK  201  A    between atoms: _486  and  _489
REMARK  202  A    between atoms: _489  and  _490
REMARK  203  A    between atoms: _490  and  _491
REMARK  204  A    between atoms: _496  and  _498
REMARK  205  A    between atoms: _498  and  _499
REMARK  206  A    between atoms: _498  and  _501
REMARK  207  A    between atoms: _501  and  _502
REMARK  208  A    between atoms: _508  and  _510
REMARK  209  A    between atoms: _510  and  _511
REMARK  210  A    between atoms: _510  and  _513
REMARK  211  A    between atoms: _513  and  _514
REMARK  212  A    between atoms: _517  and  _519
REMARK  213  A    between atoms: _519  and  _520
REMARK  214  A    between atoms: _519  and  _522
REMARK  215  A    between atoms: _522  and  _523
REMARK  216  A    between atoms: _529  and  _531
REMARK  217  A    between atoms: _531  and  _532
REMARK  218  A    between atoms: _531  and  _534
REMARK  219  A    between atoms: _534  and  _535
REMARK  220  A    between atoms: _538  and  _540
REMARK  221  A    between atoms: _540  and  _541
REMARK  222  A    between atoms: _540  and  _543
REMARK  223  A    between atoms: _543  and  _544
REMARK  224  A    between atoms: _547  and  _549
REMARK  225  A    between atoms: _549  and  _550
REMARK  226  A    between atoms: _549  and  _552
REMARK  227  A    between atoms: _552  and  _553
REMARK  228  A    between atoms: _556  and  _558
REMARK  229  A    between atoms: _558  and  _559
REMARK  230  A    between atoms: _558  and  _561
REMARK  231  A    between atoms: _564  and  _566
REMARK  232  A    between atoms: _566  and  _567
REMARK  233  A    between atoms: _566  and  _569
REMARK  234  A    between atoms: _569  and  _570
REMARK  235  A    between atoms: _573  and  _575
REMARK  236  A    between atoms: _575  and  _576
REMARK  237  A    between atoms: _575  and  _578
REMARK  238  A    between atoms: _578  and  _579
REMARK  239  A    between atoms: _586  and  _587
REMARK  240  A    between atoms: _592  and  _594
REMARK  241  A    between atoms: _594  and  _595
REMARK  242  A    between atoms: _594  and  _597
REMARK  243  A    between atoms: _597  and  _598
REMARK  244  A    between atoms: _598  and  _599
REMARK  245  A    between atoms: _601  and  _603
REMARK  246  A    between atoms: _603  and  _604
REMARK  247  A    between atoms: _603  and  _606
REMARK  248  A    between atoms: _606  and  _607
REMARK  249  A    between atoms: _607  and  _608
REMARK  250  A    between atoms: _610  and  _612
REMARK  251  A    between atoms: _612  and  _613
REMARK  252  A    between atoms: _616  and  _618
REMARK  253  A    between atoms: _618  and  _619
REMARK  254  A    between atoms: _618  and  _621
REMARK  255  A    between atoms: _621  and  _622
REMARK  256  A    between atoms: _625  and  _627
REMARK  257  A    between atoms: _627  and  _628
REMARK  258  A    between atoms: _627  and  _630
REMARK  259  A    between atoms: _630  and  _631
REMARK  260  A    between atoms: _634  and  _636
REMARK  261  A    between atoms: _636  and  _637
REMARK  262  A    between atoms: _636  and  _639
REMARK  263  A    between atoms: _639  and  _640
REMARK  264  A    between atoms: _642  and  _644
REMARK  265  A    between atoms: _644  and  _645
REMARK  266  A    between atoms: _644  and  _647
REMARK  267  A    between atoms: _650  and  _652
REMARK  268  A    between atoms: _652  and  _653
REMARK  269  A    between atoms: _652  and  _655
REMARK  270  A    between atoms: _655  and  _656
REMARK  271  A    between atoms: _656  and  _657
REMARK  272  A    between atoms: _662  and  _664
REMARK  273  A    between atoms: _664  and  _665
REMARK  274  A    between atoms: _664  and  _667
REMARK  275  A    between atoms: _671  and  _672
REMARK  276  A    between atoms: _677  and  _679
REMARK  277  A    between atoms: _679  and  _680
REMARK  278  A    between atoms: _679  and  _682
REMARK  279  A    between atoms: _682  and  _683
REMARK  280  A    between atoms: _686  and  _688
REMARK  281  A    between atoms: _688  and  _689
REMARK  282  A    between atoms: _688  and  _691
REMARK  283  A    between atoms: _691  and  _692
REMARK                            x       y       z     vdW  Elec       q    Type
REMARK                         _______ _______ _______ _____ _____    ______ ____
ROOT
ATOM      1  CA  VAL A   1      15.390   1.028  10.092  0.00  0.00    +0.133 C 
ENDROOT
BRANCH   1   2
ATOM      2  CB  VAL A   1      15.757   2.365  10.752  0.00  0.00    +0.023 C 
ATOM      3  CG2 VAL A   1      17.214   2.675  10.491  0.00  0.00    +0.002 C 
ATOM      4  CG1 VAL A   1      14.860   3.480  10.231  0.00  0.00    +0.002 C 
ENDBRANCH   1   2
BRANCH   1   5
ATOM      5  N   VAL A   1      14.012   0.664  10.382  0.00  0.00    -0.239 NA
ATOM      6  H   VAL A   1      13.475   1.216  11.081  0.00  0.00    +0.142 HD
ENDBRANCH   1   5
BRANCH   1   7
ATOM      7  C   VAL A   1      16.396  -0.013  10.583  0.00  0.00    +0.224 C 
ATOM      8  O   VAL A   1      17.395  -0.285   9.919  0.00  0.00    -0.287 OA
ENDBRANCH   1   7
TORSDOF 3
REMARK  Name = ../refined-set-2016/3b5r/3b5r_pocket.pdb
REMARK  283 active torsions:
REMARK  status: ('A' for Active; 'I' for Inactive)
REMARK    1  A    between atoms: _1  and  _3
REMARK    2  A    between atoms: _3  and  _4
REMARK    3  A    between atoms: _3  and  _6
REMARK    4  A    between atoms: _9  and  _11
REMARK    5  A    between atoms: _11  and  _12
REMARK    6  A    between atoms: _15  and  _17
REMARK    7  A    between atoms: _17  and  _18
REMARK    8  A    between atoms: _17  and  _20
REMARK    9  A    between atoms: _20  and  _21
REMARK   10  A    between atoms: _27  and  _29
REMARK   11  A    between atoms: _29  and  _30
REMARK   12  A    between atoms: _29  and  _32
REMARK   13  A    between atoms: _32  and  _33
REMARK   14  A    between atoms: _36  and  _38
REMARK   15  A    between atoms: _38  and  _39
REMARK   16  A    between atoms: _38  and  _41
REMARK   17  A    between atoms: _41  and  _42
REMARK   18  A    between atoms: _45  and  _47
REMARK   19  A    between atoms: _47  and  _48
REMARK   20  A    between atoms: _47  and  _50
REMARK   21  A    between atoms: _50  and  _51
REMARK   22  A    between atoms: _53  and  _55
REMARK   23  A    between atoms: _55  and  _56
REMARK   24  A    between atoms: _55  and  _58
REMARK   25  A    between atoms: _58  and  _59
REMARK   26  A    between atoms: _61  and  _63
REMARK   27  A    between atoms: _63  and  _64
REMARK   28  A    between atoms: _63  and  _66
REMARK   29  A    between atoms: _66  and  _67
REMARK   30  A    between atoms: _70  and  _72
REMARK   31  A    between atoms: _72  and  _73
REMARK   32  A    between atoms: _72  and  _75
REMARK   33  A    between atoms: _75  and  _76
REMARK   34  A    between atoms: _81  and  _83
REMARK   35  A    between atoms: _83  and  _84
REMARK   36  A    between atoms: _83  and  _86
REMARK   37  A    between atoms: _86  and  _87
REMARK   38  A    between atoms: _87  and  _88
REMARK   39  A    between atoms: _91  and  _93
REMARK   40  A    between atoms: _93  and  _94
REMARK   41  A    between atoms: _93  and  _96
REMARK   42  A    between atoms: _96  and  _97
REMARK   43  A    between atoms: _100  and  _102
REMARK   44  A    between atoms: _102  and  _103
REMARK   45  A    between atoms: _105  and  _107
REMARK   46  A    between atoms: _107  and  _108
REMARK   47  A    between atoms: _107  and  _110
REMARK   48  A    between atoms: _110  and  _111
REMARK   49  A    between atoms: _111  and  _112
REMARK   50  A    between atoms: _115  and  _117
REMARK   51  A    between atoms: _117  and  _118
REMARK   52  A    between atoms: _117  and  _120
REMARK   53  A    between atoms: _120  and  _121
REMARK   54  A    between atoms: _121  and  _122
REMARK   55  A    between atoms: _122  and  _123
REMARK   56  A    between atoms: _132  and  _134
REMARK   57  A    between atoms: _134  and  _135
REMARK   58  A    between atoms: _134  and  _137
REMARK   59  A    between atoms: _137  and  _138
REMARK   60  A    between atoms: _138  and  _139
REMARK   61  A    between atoms: _144  and  _146
REMARK   62  A    between atoms: _146  and  _147
REMARK   63  A    between atoms: _146  and  _149
REMARK   64  A    between atoms: _149  and  _150
REMARK   65  A    between atoms: _153  and  _155
REMARK   66  A    between atoms: _155  and  _156
REMARK   67  A    between atoms: _155  and  _158
REMARK   68  A    between atoms: _158  and  _159
REMARK   69  A    between atoms: _162  and  _164
REMARK   70  A    between atoms: _164  and  _165
REMARK   71  A    between atoms: _164  and  _167
REMARK   72  A    between atoms: _167  and  _168
REMARK   73  A    between atoms: _168  and  _169
REMARK   74  A    between atoms: _174  and  _176
REMARK   75  A    between atoms: _176  and  _177
REMARK   76  A    between atoms: _176  and  _179
REMARK   77  A    between atoms: _179  and  _180
REMARK   78  A    between atoms: _185  and  _186
REMARK   79  A    between atoms: _188  and  _190
REMARK   80  A    between atoms: _190  and  _191
REMARK   81  A    between atoms: _190  and  _193
REMARK   82  A    between atoms: _193  and  _194
REMARK   83  A    between atoms: _196  and  _198
REMARK   84  A    between atoms: _198  and  _199
REMARK   85  A    between atoms: _198  and  _201
REMARK   86  A    between atoms: _201  and  _202
REMARK   87  A    between atoms: _212  and  _214
REMARK   88  A    between atoms: _214  and  _215
REMARK   89  A    between atoms: _214  and  _217
REMARK   90  A    between atoms: _217  and  _218
REMARK   91  A    between atoms: _218  and  _219
REMARK   92  A    between atoms: _221  and  _223
REMARK   93  A    between atoms: _223  and  _224
REMARK   94  A    between atoms: _226  and  _228
REMARK   95  A    between atoms: _228  and  _229
REMARK   96  A    between atoms: _228  and  _231
REMARK   97  A    between atoms: _231  and  _232
REMARK   98  A    between atoms: _235  and  _237
REMARK   99  A    between atoms: _237  and  _238
REMARK  100  A    between atoms: _237  and  _240
REMARK  101  A    between atoms: _240  and  _241
REMARK  102  A    between atoms: _241  and  _242
REMARK  103  A    between atoms: _244  and  _246
REMARK  104  A    between atoms: _246  and  _247
REMARK  105  A    between atoms: _246  and  _249
REMARK  106  A    between atoms: _252  and  _254
REMARK  107  A    between atoms: _254  and  _255
REMARK  108  A    between atoms: _254  and  _257
REMARK  109  A    between atoms: _257  and  _258
REMARK  110  A    between atoms: _264  and  _266
REMARK  111  A    between atoms: _266  and  _267
REMARK  112  A    between atoms: _270  and  _272
REMARK  113  A    between atoms: _272  and  _273
REMARK  114  A    between atoms: _272  and  _275
REMARK  115  A    between atoms: _275  and  _276
REMARK  116  A    between atoms: _276  and  _277
REMARK  117  A    between atoms: _279  and  _281
REMARK  118  A    between atoms: _281  and  _282
REMARK  119  A    between atoms: _284  and  _286
REMARK  120  A    between atoms: _286  and  _287
REMARK  121  A    between atoms: _286  and  _289
REMARK  122  A    between atoms: _289  and  _290
REMARK  123  A    between atoms: _300  and  _302
REMARK  124  A    between atoms: _302  and  _303
REMARK  125  A    between atoms: _302  and  _305
REMARK  126  A    between atoms: _305  and  _306
REMARK  127  A    between atoms: _306  and  _307
REMARK  128  A    between atoms: _307  and  _308
REMARK  129  A    between atoms: _317  and  _319
REMARK  130  A    between atoms: _319  and  _320
REMARK  131  A    between atoms: _319  and  _322
REMARK  132  A    between atoms: _322  and  _323
REMARK  133  A    between atoms: _325  and  _327
REMARK  134  A    between atoms: _327  and  _328
REMARK  135  A    between atoms: _327  and  _330
REMARK  136  A    between atoms: _330  and  _331
REMARK  137  A    between atoms: _334  and  _336
REMARK  138  A    between atoms: _336  and  _337
REMARK  139  A    between atoms: _336  and  _339
REMARK  140  A    between atoms: _339  and  _340
REMARK  141  A    between atoms: _345  and  _346
REMARK  142  A    between atoms: _348  and  _350
REMARK  143  A    between atoms: _350  and  _351
REMARK  144  A    between atoms: _350  and  _353
REMARK  145  A    between atoms: _353  and  _354
REMARK  146  A    between atoms: _360  and  _362
REMARK  147  A    between atoms: _362  and  _363
REMARK  148  A    between atoms: _366  and  _368
REMARK  149  A    between atoms: _368  and  _369
REMARK  150  A    between atoms: _368  and  _371
REMARK  151  A    between atoms: _371  and  _372
REMARK  152  A    between atoms: _375  and  _377
REMARK  153  A    between atoms: _377  and  _378
REMARK  154  A    between atoms: _377  and  _380
REMARK  155  A    between atoms: _380  and  _381
REMARK  156  A    between atoms: _387  and  _389
REMARK  157  A    between atoms: _389  and  _390
REMARK  158  A    between atoms: _389  and  _392
REMARK  159  A    between atoms: _392  and  _393
REMARK  160  A    between atoms: _395  and  _397
REMARK  161  A    between atoms: _397  and  _398
REMARK  162  A    between atoms: _397  and  _400
REMARK  163  A    between atoms: _400  and  _401
REMARK  164  A    between atoms: _401  and  _402
REMARK  165  A    between atoms: _404  and  _406
REMARK  166  A    between atoms: _406  and  _407
REMARK  167  A    between atoms: _406  and  _409
REMARK  168  A    between atoms: _409  and  _410
REMARK  169  A    between atoms: _410  and  _411
REMARK  170  A    between atoms: _416  and  _418
REMARK  171  A    between atoms: _418  and  _419
REMARK  172  A    between atoms: _418  and  _421
REMARK  173  A    between atoms: _423  and  _425
REMARK  174  A    between atoms: _425  and  _426
REMARK  175  A    between atoms: _425  and  _428
REMARK  176  A    between atoms: _428  and  _429
REMARK  177  A    between atoms: _429  and  _430
REMARK  178  A    between atoms: _432  and  _434
REMARK  179  A    between atoms: _434  and  _435
REMARK  180  A    between atoms: _434  and  _437
REMARK  181  A    between atoms: _437  and  _438
REMARK  182  A    between atoms: _441  and  _443
REMARK  183  A    between atoms: _443  and  _444
REMARK  184  A    between atoms: _443  and  _446
REMARK  185  A    between atoms: _449  and  _451
REMARK  186  A    between atoms: _451  and  _452
REMARK  187  A    between atoms: _451  and  _454
REMARK  188  A    between atoms: _454  and  _455
REMARK  189  A    between atoms: _458  and  _460
REMARK  190  A    between atoms: _460  and  _461
REMARK  191  A    between atoms: _464  and  _466
REMARK  192  A    between atoms: _466  and  _467
REMARK  193  A    between atoms: _466  and  _469
REMARK  194  A    between atoms: _469  and  _470
REMARK  195  A    between atoms: _473  and  _475
REMARK  196  A    between atoms: _475  and  _476
REMARK  197  A    between atoms: _475  and  _478
REMARK  198  A    between atoms: _478  and  _479
REMARK  199  A    between atoms: _484  and  _486
REMARK  200  A    between atoms: _486  and  _487
REMARK  201  A    between atoms: _486  and  _489
REMARK  202  A    between atoms: _489  and  _490
REMARK  203  A    between atoms: _490  and  _491
REMARK  204  A    between atoms: _496  and  _498
REMARK  205  A    between atoms: _498  and  _499
REMARK  206  A    between atoms: _498  and  _501
REMARK  207  A    between atoms: _501  and  _502
REMARK  208  A    between atoms: _508  and  _510
REMARK  209  A    between atoms: _510  and  _511
REMARK  210  A    between atoms: _510  and  _513
REMARK  211  A    between atoms: _513  and  _514
REMARK  212  A    between atoms: _517  and  _519
REMARK  213  A    between atoms: _519  and  _520
REMARK  214  A    between atoms: _519  and  _522
REMARK  215  A    between atoms: _522  and  _523
REMARK  216  A    between atoms: _529  and  _531
REMARK  217  A    between atoms: _531  and  _532
REMARK  218  A    between atoms: _531  and  _534
REMARK  219  A    between atoms: _534  and  _535
REMARK  220  A    between atoms: _538  and  _540
REMARK  221  A    between atoms: _540  and  _541
REMARK  222  A    between atoms: _540  and  _543
REMARK  223  A    between atoms: _543  and  _544
REMARK  224  A    between atoms: _547  and  _549
REMARK  225  A    between atoms: _549  and  _550
REMARK  226  A    between atoms: _549  and  _552
REMARK  227  A    between atoms: _552  and  _553
REMARK  228  A    between atoms: _556  and  _558
REMARK  229  A    between atoms: _558  and  _559
REMARK  230  A    between atoms: _558  and  _561
REMARK  231  A    between atoms: _564  and  _566
REMARK  232  A    between atoms: _566  and  _567
REMARK  233  A    between atoms: _566  and  _569
REMARK  234  A    between atoms: _569  and  _570
REMARK  235  A    between atoms: _573  and  _575
REMARK  236  A    between atoms: _575  and  _576
REMARK  237  A    between atoms: _575  and  _578
REMARK  238  A    between atoms: _578  and  _579
REMARK  239  A    between atoms: _586  and  _587
REMARK  240  A    between atoms: _592  and  _594
REMARK  241  A    between atoms: _594  and  _595
REMARK  242  A    between atoms: _594  and  _597
REMARK  243  A    between atoms: _597  and  _598
REMARK  244  A    between atoms: _598  and  _599
REMARK  245  A    between atoms: _601  and  _603
REMARK  246  A    between atoms: _603  and  _604
REMARK  247  A    between atoms: _603  and  _606
REMARK  248  A    between atoms: _606  and  _607
REMARK  249  A    between atoms: _607  and  _608
REMARK  250  A    between atoms: _610  and  _612
REMARK  251  A    between atoms: _612  and  _613
REMARK  252  A    between atoms: _616  and  _618
REMARK  253  A    between atoms: _618  and  _619
REMARK  254  A    between atoms: _618  and  _621
REMARK  255  A    between atoms: _621  and  _622
REMARK  256  A    between atoms: _625  and  _627
REMARK  257  A    between atoms: _627  and  _628
REMARK  258  A    between atoms: _627  and  _630
REMARK  259  A    between atoms: _630  and  _631
REMARK  260  A    between atoms: _634  and  _636
REMARK  261  A    between atoms: _636  and  _637
REMARK  262  A    between atoms: _636  and  _639
REMARK  263  A    between atoms: _639  and  _640
REMARK  264  A    between atoms: _642  and  _644
REMARK  265  A    between atoms: _644  and  _645
REMARK  266  A    between atoms: _644  and  _647
REMARK  267  A    between atoms: _650  and  _652
REMARK  268  A    between atoms: _652  and  _653
REMARK  269  A    between atoms: _652  and  _655
REMARK  270  A    between atoms: _655  and  _656
REMARK  271  A    between atoms: _656  and  _657
REMARK  272  A    between atoms: _662  and  _664
REMARK  273  A    between atoms: _664  and  _665
REMARK  274  A    between atoms: _664  and  _667
REMARK  275  A    between atoms: _671  and  _672
REMARK  276  A    between atoms: _677  and  _679
REMARK  277  A    between atoms: _679  and  _680
REMARK  278  A    between atoms: _679  and  _682
REMARK  279  A    between atoms: _682  and  _683
REMARK  280  A    between atoms: _686  and  _688
REMARK  281  A    between atoms: _688  and  _689
REMARK  282  A    between atoms: _688  and  _691
REMARK  283  A    between atoms: _691  and  _692
REMARK                            x       y       z     vdW  Elec       q    Type
REMARK                         _______ _______ _______ _____ _____    ______ ____
ROOT
ATOM      1  C   ILE A   1      19.492  -2.502   7.684  0.00  0.00    +0.238 C 
ATOM      2  N   ALA A   2      19.722  -1.860   8.827  0.00  0.00    -0.298 N 
ATOM      3  H   ALA A   2      18.917  -1.515   9.388  0.00  0.00    +0.150 HD
ATOM      4  O   ILE A   1      20.396  -2.932   6.961  0.00  0.00    -0.274 OA
ENDROOT
BRANCH   2   5
ATOM      5  CA  ALA A   2      21.079  -1.629   9.311  0.00  0.00    +0.137 C 
ATOM      6  CB  ALA A   2      21.052  -0.729  10.556  0.00  0.00    +0.030 C 
BRANCH   5   7
ATOM      7  C   ALA A   2      21.750  -2.966   9.637  0.00  0.00    +0.227 C 
ATOM      8  O   ALA A   2      22.962  -3.112   9.506  0.00  0.00    -0.286 OA
ENDBRANCH   5   7
ENDBRANCH   2   5
BRANCH   1   9
ATOM      9  CA  ILE A   1      18.027  -2.686   7.295  0.00  0.00    +0.145 C 
BRANCH   9  10
ATOM     10  N   ILE A   1      17.259  -3.117   8.460  0.00  0.00    -0.238 NA
ATOM     11  H   ILE A   1      16.600  -2.451   8.911  0.00  0.00    +0.142 HD
ENDBRANCH   9  10
BRANCH   9  12
ATOM     12  CB  ILE A   1      17.498  -1.349   6.718  0.00  0.00    +0.025 C 
ATOM     13  CG2 ILE A   1      18.405  -0.875   5.580  0.00  0.00    +0.002 C 
BRANCH  12  14
ATOM     14  CG1 ILE A   1      16.059  -1.531   6.227  0.00  0.00    +0.002 C 
ATOM     15  CD1 ILE A   1      15.472  -0.319   5.537  0.00  0.00    +0.000 C 
ENDBRANCH  12  14
ENDBRANCH   9  12
ENDBRANCH   1   9
TORSDOF 6
REMARK  Name = ../refined-set-2016/3b5r/3b5r_pocket.pdb
REMARK  283 active torsions:
REMARK  status: ('A' for Active; 'I' for Inactive)
REMARK    1  A    between atoms: _1  and  _3
REMARK    2  A    between atoms: _3  and  _4
REMARK    3  A    between atoms: _3  and  _6
REMARK    4  A    between atoms: _9  and  _11
REMARK    5  A    between atoms: _11  and  _12
REMARK    6  A    between atoms: _15  and  _17
REMARK    7  A    between atoms: _17  and  _18
REMARK    8  A    between atoms: _17  and  _20
REMARK    9  A    between atoms: _20  and  _21
REMARK   10  A    between atoms: _27  and  _29
REMARK   11  A    between atoms: _29  and  _30
REMARK   12  A    between atoms: _29  and  _32
REMARK   13  A    between atoms: _32  and  _33
REMARK   14  A    between atoms: _36  and  _38
REMARK   15  A    between atoms: _38  and  _39
REMARK   16  A    between atoms: _38  and  _41
REMARK   17  A    between atoms: _41  and  _42
REMARK   18  A    between atoms: _45  and  _47
REMARK   19  A    between atoms: _47  and  _48
REMARK   20  A    between atoms: _47  and  _50
REMARK   21  A    between atoms: _50  and  _51
REMARK   22  A    between atoms: _53  and  _55
REMARK   23  A    between atoms: _55  and  _56
REMARK   24  A    between atoms: _55  and  _58
REMARK   25  A    between atoms: _58  and  _59
REMARK   26  A    between atoms: _61  and  _63
REMARK   27  A    between atoms: _63  and  _64
REMARK   28  A    between atoms: _63  and  _66
REMARK   29  A    between atoms: _66  and  _67
REMARK   30  A    between atoms: _70  and  _72
REMARK   31  A    between atoms: _72  and  _73
REMARK   32  A    between atoms: _72  and  _75
REMARK   33  A    between atoms: _75  and  _76
REMARK   34  A    between atoms: _81  and  _83
REMARK   35  A    between atoms: _83  and  _84
REMARK   36  A    between atoms: _83  and  _86
REMARK   37  A    between atoms: _86  and  _87
REMARK   38  A    between atoms: _87  and  _88
REMARK   39  A    between atoms: _91  and  _93
REMARK   40  A    between atoms: _93  and  _94
REMARK   41  A    between atoms: _93  and  _96
REMARK   42  A    between atoms: _96  and  _97
REMARK   43  A    between atoms: _100  and  _102
REMARK   44  A    between atoms: _102  and  _103
REMARK   45  A    between atoms: _105  and  _107
REMARK   46  A    between atoms: _107  and  _108
REMARK   47  A    between atoms: _107  and  _110
REMARK   48  A    between atoms: _110  and  _111
REMARK   49  A    between atoms: _111  and  _112
REMARK   50  A    between atoms: _115  and  _117
REMARK   51  A    between atoms: _117  and  _118
REMARK   52  A    between atoms: _117  and  _120
REMARK   53  A    between atoms: _120  and  _121
REMARK   54  A    between atoms: _121  and  _122
REMARK   55  A    between atoms: _122  and  _123
REMARK   56  A    between atoms: _132  and  _134
REMARK   57  A    between atoms: _134  and  _135
REMARK   58  A    between atoms: _134  and  _137
REMARK   59  A    between atoms: _137  and  _138
REMARK   60  A    between atoms: _138  and  _139
REMARK   61  A    between atoms: _144  and  _146
REMARK   62  A    between atoms: _146  and  _147
REMARK   63  A    between atoms: _146  and  _149
REMARK   64  A    between atoms: _149  and  _150
REMARK   65  A    between atoms: _153  and  _155
REMARK   66  A    between atoms: _155  and  _156
REMARK   67  A    between atoms: _155  and  _158
REMARK   68  A    between atoms: _158  and  _159
REMARK   69  A    between atoms: _162  and  _164
REMARK   70  A    between atoms: _164  and  _165
REMARK   71  A    between atoms: _164  and  _167
REMARK   72  A    between atoms: _167  and  _168
REMARK   73  A    between atoms: _168  and  _169
REMARK   74  A    between atoms: _174  and  _176
REMARK   75  A    between atoms: _176  and  _177
REMARK   76  A    between atoms: _176  and  _179
REMARK   77  A    between atoms: _179  and  _180
REMARK   78  A    between atoms: _185  and  _186
REMARK   79  A    between atoms: _188  and  _190
REMARK   80  A    between atoms: _190  and  _191
REMARK   81  A    between atoms: _190  and  _193
REMARK   82  A    between atoms: _193  and  _194
REMARK   83  A    between atoms: _196  and  _198
REMARK   84  A    between atoms: _198  and  _199
REMARK   85  A    between atoms: _198  and  _201
REMARK   86  A    between atoms: _201  and  _202
REMARK   87  A    between atoms: _212  and  _214
REMARK   88  A    between atoms: _214  and  _215
REMARK   89  A    between atoms: _214  and  _217
REMARK   90  A    between atoms: _217  and  _218
REMARK   91  A    between atoms: _218  and  _219
REMARK   92  A    between atoms: _221  and  _223
REMARK   93  A    between atoms: _223  and  _224
REMARK   94  A    between atoms: _226  and  _228
REMARK   95  A    between atoms: _228  and  _229
REMARK   96  A    between atoms: _228  and  _231
REMARK   97  A    between atoms: _231  and  _232
REMARK   98  A    between atoms: _235  and  _237
REMARK   99  A    between atoms: _237  and  _238
REMARK  100  A    between atoms: _237  and  _240
REMARK  101  A    between atoms: _240  and  _241
REMARK  102  A    between atoms: _241  and  _242
REMARK  103  A    between atoms: _244  and  _246
REMARK  104  A    between atoms: _246  and  _247
REMARK  105  A    between atoms: _246  and  _249
REMARK  106  A    between atoms: _252  and  _254
REMARK  107  A    between atoms: _254  and  _255
REMARK  108  A    between atoms: _254  and  _257
REMARK  109  A    between atoms: _257  and  _258
REMARK  110  A    between atoms: _264  and  _266
REMARK  111  A    between atoms: _266  and  _267
REMARK  112  A    between atoms: _270  and  _272
REMARK  113  A    between atoms: _272  and  _273
REMARK  114  A    between atoms: _272  and  _275
REMARK  115  A    between atoms: _275  and  _276
REMARK  116  A    between atoms: _276  and  _277
REMARK  117  A    between atoms: _279  and  _281
REMARK  118  A    between atoms: _281  and  _282
REMARK  119  A    between atoms: _284  and  _286
REMARK  120  A    between atoms: _286  and  _287
REMARK  121  A    between atoms: _286  and  _289
REMARK  122  A    between atoms: _289  and  _290
REMARK  123  A    between atoms: _300  and  _302
REMARK  124  A    between atoms: _302  and  _303
REMARK  125  A    between atoms: _302  and  _305
REMARK  126  A    between atoms: _305  and  _306
REMARK  127  A    between atoms: _306  and  _307
REMARK  128  A    between atoms: _307  and  _308
REMARK  129  A    between atoms: _317  and  _319
REMARK  130  A    between atoms: _319  and  _320
REMARK  131  A    between atoms: _319  and  _322
REMARK  132  A    between atoms: _322  and  _323
REMARK  133  A    between atoms: _325  and  _327
REMARK  134  A    between atoms: _327  and  _328
REMARK  135  A    between atoms: _327  and  _330
REMARK  136  A    between atoms: _330  and  _331
REMARK  137  A    between atoms: _334  and  _336
REMARK  138  A    between atoms: _336  and  _337
REMARK  139  A    between atoms: _336  and  _339
REMARK  140  A    between atoms: _339  and  _340
REMARK  141  A    between atoms: _345  and  _346
REMARK  142  A    between atoms: _348  and  _350
REMARK  143  A    between atoms: _350  and  _351
REMARK  144  A    between atoms: _350  and  _353
REMARK  145  A    between atoms: _353  and  _354
REMARK  146  A    between atoms: _360  and  _362
REMARK  147  A    between atoms: _362  and  _363
REMARK  148  A    between atoms: _366  and  _368
REMARK  149  A    between atoms: _368  and  _369
REMARK  150  A    between atoms: _368  and  _371
REMARK  151  A    between atoms: _371  and  _372
REMARK  152  A    between atoms: _375  and  _377
REMARK  153  A    between atoms: _377  and  _378
REMARK  154  A    between atoms: _377  and  _380
REMARK  155  A    between atoms: _380  and  _381
REMARK  156  A    between atoms: _387  and  _389
REMARK  157  A    between atoms: _389  and  _390
REMARK  158  A    between atoms: _389  and  _392
REMARK  159  A    between atoms: _392  and  _393
REMARK  160  A    between atoms: _395  and  _397
REMARK  161  A    between atoms: _397  and  _398
REMARK  162  A    between atoms: _397  and  _400
REMARK  163  A    between atoms: _400  and  _401
REMARK  164  A    between atoms: _401  and  _402
REMARK  165  A    between atoms: _404  and  _406
REMARK  166  A    between atoms: _406  and  _407
REMARK  167  A    between atoms: _406  and  _409
REMARK  168  A    between atoms: _409  and  _410
REMARK  169  A    between atoms: _410  and  _411
REMARK  170  A    between atoms: _416  and  _418
REMARK  171  A    between atoms: _418  and  _419
REMARK  172  A    between atoms: _418  and  _421
REMARK  173  A    between atoms: _423  and  _425
REMARK  174  A    between atoms: _425  and  _426
REMARK  175  A    between atoms: _425  and  _428
REMARK  176  A    between atoms: _428  and  _429
REMARK  177  A    between atoms: _429  and  _430
REMARK  178  A    between atoms: _432  and  _434
REMARK  179  A    between atoms: _434  and  _435
REMARK  180  A    between atoms: _434  and  _437
REMARK  181  A    between atoms: _437  and  _438
REMARK  182  A    between atoms: _441  and  _443
REMARK  183  A    between atoms: _443  and  _444
REMARK  184  A    between atoms: _443  and  _446
REMARK  185  A    between atoms: _449  and  _451
REMARK  186  A    between atoms: _451  and  _452
REMARK  187  A    between atoms: _451  and  _454
REMARK  188  A    between atoms: _454  and  _455
REMARK  189  A    between atoms: _458  and  _460
REMARK  190  A    between atoms: _460  and  _461
REMARK  191  A    between atoms: _464  and  _466
REMARK  192  A    between atoms: _466  and  _467
REMARK  193  A    between atoms: _466  and  _469
REMARK  194  A    between atoms: _469  and  _470
REMARK  195  A    between atoms: _473  and  _475
REMARK  196  A    between atoms: _475  and  _476
REMARK  197  A    between atoms: _475  and  _478
REMARK  198  A    between atoms: _478  and  _479
REMARK  199  A    between atoms: _484  and  _486
REMARK  200  A    between atoms: _486  and  _487
REMARK  201  A    between atoms: _486  and  _489
REMARK  202  A    between atoms: _489  and  _490
REMARK  203  A    between atoms: _490  and  _491
REMARK  204  A    between atoms: _496  and  _498
REMARK  205  A    between atoms: _498  and  _499
REMARK  206  A    between atoms: _498  and  _501
REMARK  207  A    between atoms: _501  and  _502
REMARK  208  A    between atoms: _508  and  _510
REMARK  209  A    between atoms: _510  and  _511
REMARK  210  A    between atoms: _510  and  _513
REMARK  211  A    between atoms: _513  and  _514
REMARK  212  A    between atoms: _517  and  _519
REMARK  213  A    between atoms: _519  and  _520
REMARK  214  A    between atoms: _519  and  _522
REMARK  215  A    between atoms: _522  and  _523
REMARK  216  A    between atoms: _529  and  _531
REMARK  217  A    between atoms: _531  and  _532
REMARK  218  A    between atoms: _531  and  _534
REMARK  219  A    between atoms: _534  and  _535
REMARK  220  A    between atoms: _538  and  _540
REMARK  221  A    between atoms: _540  and  _541
REMARK  222  A    between atoms: _540  and  _543
REMARK  223  A    between atoms: _543  and  _544
REMARK  224  A    between atoms: _547  and  _549
REMARK  225  A    between atoms: _549  and  _550
REMARK  226  A    between atoms: _549  and  _552
REMARK  227  A    between atoms: _552  and  _553
REMARK  228  A    between atoms: _556  and  _558
REMARK  229  A    between atoms: _558  and  _559
REMARK  230  A    between atoms: _558  and  _561
REMARK  231  A    between atoms: _564  and  _566
REMARK  232  A    between atoms: _566  and  _567
REMARK  233  A    between atoms: _566  and  _569
REMARK  234  A    between atoms: _569  and  _570
REMARK  235  A    between atoms: _573  and  _575
REMARK  236  A    between atoms: _575  and  _576
REMARK  237  A    between atoms: _575  and  _578
REMARK  238  A    between atoms: _578  and  _579
REMARK  239  A    between atoms: _586  and  _587
REMARK  240  A    between atoms: _592  and  _594
REMARK  241  A    between atoms: _594  and  _595
REMARK  242  A    between atoms: _594  and  _597
REMARK  243  A    between atoms: _597  and  _598
REMARK  244  A    between atoms: _598  and  _599
REMARK  245  A    between atoms: _601  and  _603
REMARK  246  A    between atoms: _603  and  _604
REMARK  247  A    between atoms: _603  and  _606
REMARK  248  A    between atoms: _606  and  _607
REMARK  249  A    between atoms: _607  and  _608
REMARK  250  A    between atoms: _610  and  _612
REMARK  251  A    between atoms: _612  and  _613
REMARK  252  A    between atoms: _616  and  _618
REMARK  253  A    between atoms: _618  and  _619
REMARK  254  A    between atoms: _618  and  _621
REMARK  255  A    between atoms: _621  and  _622
REMARK  256  A    between atoms: _625  and  _627
REMARK  257  A    between atoms: _627  and  _628
REMARK  258  A    between atoms: _627  and  _630
REMARK  259  A    between atoms: _630  and  _631
REMARK  260  A    between atoms: _634  and  _636
REMARK  261  A    between atoms: _636  and  _637
REMARK  262  A    between atoms: _636  and  _639
REMARK  263  A    between atoms: _639  and  _640
REMARK  264  A    between atoms: _642  and  _644
REMARK  265  A    between atoms: _644  and  _645
REMARK  266  A    between atoms: _644  and  _647
REMARK  267  A    between atoms: _650  and  _652
REMARK  268  A    between atoms: _652  and  _653
REMARK  269  A    between atoms: _652  and  _655
REMARK  270  A    between atoms: _655  and  _656
REMARK  271  A    between atoms: _656  and  _657
REMARK  272  A    between atoms: _662  and  _664
REMARK  273  A    between atoms: _664  and  _665
REMARK  274  A    between atoms: _664  and  _667
REMARK  275  A    between atoms: _671  and  _672
REMARK  276  A    between atoms: _677  and  _679
REMARK  277  A    between atoms: _679  and  _680
REMARK  278  A    between atoms: _679  and  _682
REMARK  279  A    between atoms: _682  and  _683
REMARK  280  A    between atoms: _686  and  _688
REMARK  281  A    between atoms: _688  and  _689
REMARK  282  A    between atoms: _688  and  _691
REMARK  283  A    between atoms: _691  and  _692
REMARK                            x       y       z     vdW  Elec       q    Type
REMARK                         _______ _______ _______ _____ _____    ______ ____
ROOT
ATOM      1  C   PHE A   4      28.648  -6.980   4.767  0.00  0.00    +0.241 C 
ATOM      2  N   THR A   5      28.771  -5.861   5.469  0.00  0.00    -0.295 N 
ATOM      3  H   THR A   5      27.930  -5.432   5.905  0.00  0.00    +0.150 HD
ATOM      4  O   PHE A   4      29.611  -7.556   4.259  0.00  0.00    -0.273 OA
ENDROOT
BRANCH   1   5
ATOM      5  CA  PHE A   4      27.241  -7.550   4.626  0.00  0.00    +0.153 C 
BRANCH   5   8
ATOM      6  C   GLN A   3      27.081  -8.365   6.915  0.00  0.00    +0.241 C 
ATOM      7  O   GLN A   3      28.149  -8.993   6.817  0.00  0.00    -0.273 OA
ATOM      8  N   PHE A   4      26.569  -7.647   5.919  0.00  0.00    -0.297 N 
ATOM      9  H   PHE A   4      25.671  -7.144   6.064  0.00  0.00    +0.150 HD
BRANCH   6  10
ATOM     10  CA  GLN A   3      26.277  -8.373   8.215  0.00  0.00    +0.149 C 
BRANCH  10  13
ATOM     11  C   HIS A   2      26.791  -6.047   8.770  0.00  0.00    +0.241 C 
ATOM     12  O   HIS A   2      28.002  -6.217   8.615  0.00  0.00    -0.273 OA
ATOM     13  N   GLN A   3      25.894  -7.013   8.598  0.00  0.00    -0.297 N 
ATOM     14  H   GLN A   3      24.887  -6.795   8.740  0.00  0.00    +0.150 HD
BRANCH  11  15
ATOM     15  CA  HIS A   2      26.235  -4.684   9.177  0.00  0.00    +0.155 C 
BRANCH  15  17
ATOM     16  C   LEU A   1      25.460  -4.158   6.936  0.00  0.00    +0.238 C 
ATOM     17  N   HIS A   2      25.193  -4.301   8.232  0.00  0.00    -0.297 N 
ATOM     18  H   HIS A   2      24.225  -4.137   8.576  0.00  0.00    +0.150 HD
ATOM     19  O   LEU A   1      26.595  -4.309   6.462  0.00  0.00    -0.274 OA
BRANCH  16  20
ATOM     20  CA  LEU A   1      24.275  -3.795   6.039  0.00  0.00    +0.145 C 
BRANCH  20  21
ATOM     21  N   LEU A   1      23.089  -4.512   6.499  0.00  0.00    -0.238 NA
ATOM     22  H   LEU A   1      22.351  -4.001   7.025  0.00  0.00    +0.142 HD
ENDBRANCH  20  21
BRANCH  20  23
ATOM     23  CB  LEU A   1      24.023  -2.278   6.046  0.00  0.00    +0.026 C 
BRANCH  23  24
ATOM     24  CG  LEU A   1      23.041  -1.755   4.987  0.00  0.00    +0.002 C 
ATOM     25  CD2 LEU A   1      22.765  -0.293   5.218  0.00  0.00    +0.000 C 
ATOM     26  CD1 LEU A   1      23.605  -1.970   3.587  0.00  0.00    +0.000 C 
ENDBRANCH  23  24
ENDBRANCH  20  23
ENDBRANCH  16  20
ENDBRANCH  15  17
BRANCH  15  27
ATOM     27  CB  HIS A   2      25.662  -4.774  10.595  0.00  0.00    +0.076 C 
BRANCH  27  28
ATOM     28  CG  HIS A   2      25.636  -3.467  11.323  0.00  0.00    +0.082 A 
ATOM     29  ND1 HIS A   2      24.683  -3.165  12.273  0.00  0.00    -0.227 NA
ATOM     30  CE1 HIS A   2      24.915  -1.958  12.756  0.00  0.00    +0.199 A 
ATOM     31  NE2 HIS A   2      25.986  -1.468  12.156  0.00  0.00    -0.221 NA
ATOM     32  CD2 HIS A   2      26.456  -2.392  11.256  0.00  0.00    +0.115 A 
ENDBRANCH  27  28
ENDBRANCH  15  27
ENDBRANCH  11  15
ENDBRANCH  10  13
BRANCH  10  33
ATOM     33  CB  GLN A   3      25.025  -9.230   8.040  0.00  0.00    +0.039 C 
BRANCH  33  34
ATOM     34  CG  GLN A   3      25.296 -10.714   7.839  0.00  0.00    +0.087 C 
BRANCH  34  35
ATOM     35  CD  GLN A   3      26.001 -11.336   9.024  0.00  0.00    +0.219 C 
ATOM     36  NE2 GLN A   3      25.235 -11.659  10.062  0.00  0.00    -0.329 N 
ATOM     37 HE21 GLN A   3      25.661 -12.080  10.912  0.00  0.00    +0.145 HD
ATOM     38 HE22 GLN A   3      24.209 -11.490  10.024  0.00  0.00    +0.145 HD
ATOM     39  OE1 GLN A   3      27.222 -11.515   9.017  0.00  0.00    -0.275 OA
ENDBRANCH  34  35
ENDBRANCH  33  34
ENDBRANCH  10  33
ENDBRANCH   6  10
ENDBRANCH   5   8
BRANCH   5  40
ATOM     40  CB  PHE A   4      26.416  -6.680   3.661  0.00  0.00    +0.055 C 
BRANCH  40  41
ATOM     41  CG  PHE A   4      27.191  -6.188   2.459  0.00  0.00    -0.020 A 
ATOM     42  CD2 PHE A   4      27.916  -5.000   2.520  0.00  0.00    -0.004 A 
ATOM     43  CE2 PHE A   4      28.636  -4.536   1.409  0.00  0.00    -0.000 A 
ATOM     44  CZ  PHE A   4      28.629  -5.272   0.223  0.00  0.00    -0.000 A 
ATOM     45  CE1 PHE A   4      27.907  -6.463   0.153  0.00  0.00    -0.000 A 
ATOM     46  CD1 PHE A   4      27.195  -6.913   1.267  0.00  0.00    -0.004 A 
ENDBRANCH  40  41
ENDBRANCH   5  40
ENDBRANCH   1   5
BRANCH   2  47
ATOM     47  CA  THR A   5      30.072  -5.227   5.636  0.00  0.00    +0.176 C 
BRANCH  47  48
ATOM     48  C   THR A   5      31.032  -6.114   6.407  0.00  0.00    +0.243 C 
ATOM     49  N   PHE A   6      30.521  -6.810   7.416  0.00  0.00    -0.297 N 
ATOM     50  H   PHE A   6      29.511  -6.723   7.649  0.00  0.00    +0.150 HD
ATOM     51  O   THR A   5      32.227  -6.159   6.108  0.00  0.00    -0.273 OA
BRANCH  49  52
ATOM     52  CA  PHE A   6      31.373  -7.694   8.194  0.00  0.00    +0.153 C 
BRANCH  52  53
ATOM     53  C   PHE A   6      31.957  -8.776   7.290  0.00  0.00    +0.241 C 
ATOM     54  O   PHE A   6      33.165  -8.996   7.278  0.00  0.00    -0.273 OA
ATOM     55  N   ASP A   7      31.101  -9.459   6.535  0.00  0.00    -0.297 N 
ATOM     56  H   ASP A   7      30.084  -9.247   6.575  0.00  0.00    +0.150 HD
BRANCH  55  57
ATOM     57  CA  ASP A   7      31.598 -10.508   5.649  0.00  0.00    +0.160 C 
BRANCH  57  58
ATOM     58  C   ASP A   7      32.628  -9.926   4.683  0.00  0.00    +0.241 C 
ATOM     59  O   ASP A   7      33.685 -10.522   4.439  0.00  0.00    -0.273 OA
ATOM     60  N   LEU A   8      32.321  -8.747   4.152  0.00  0.00    -0.297 N 
ATOM     61  H   LEU A   8      31.425  -8.290   4.416  0.00  0.00    +0.150 HD
BRANCH  60  62
ATOM     62  CA  LEU A   8      33.208  -8.080   3.211  0.00  0.00    +0.149 C 
BRANCH  62  63
ATOM     63  C   LEU A   8      34.580  -7.810   3.838  0.00  0.00    +0.241 C 
ATOM     64  N   LEU A   9      34.599  -7.287   5.064  0.00  0.00    -0.298 N 
ATOM     65  H   LEU A   9      33.702  -7.069   5.544  0.00  0.00    +0.150 HD
ATOM     66  O   LEU A   8      35.607  -8.082   3.221  0.00  0.00    -0.273 OA
BRANCH  64  67
ATOM     67  CA  LEU A   9      35.865  -7.016   5.741  0.00  0.00    +0.137 C 
BRANCH  67  68
ATOM     68  C   LEU A   9      36.719  -8.283   5.843  0.00  0.00    +0.227 C 
ATOM     69  O   LEU A   9      37.907  -8.266   5.525  0.00  0.00    -0.286 OA
ENDBRANCH  67  68
BRANCH  67  70
ATOM     70  CB  LEU A   9      35.627  -6.454   7.150  0.00  0.00    +0.028 C 
BRANCH  70  71
ATOM     71  CG  LEU A   9      36.921  -6.076   7.884  0.00  0.00    +0.002 C 
ATOM     72  CD2 LEU A   9      36.622  -5.581   9.294  0.00  0.00    +0.000 C 
ATOM     73  CD1 LEU A   9      37.642  -4.998   7.079  0.00  0.00    +0.000 C 
ENDBRANCH  70  71
ENDBRANCH  67  70
ENDBRANCH  64  67
ENDBRANCH  62  63
BRANCH  62  74
ATOM     74  CB  LEU A   8      32.560  -6.775   2.728  0.00  0.00    +0.029 C 
BRANCH  74  75
ATOM     75  CG  LEU A   8      33.228  -6.029   1.569  0.00  0.00    +0.002 C 
ATOM     76  CD2 LEU A   8      32.330  -4.876   1.126  0.00  0.00    +0.000 C 
ATOM     77  CD1 LEU A   8      33.490  -6.987   0.410  0.00  0.00    +0.000 C 
ENDBRANCH  74  75
ENDBRANCH  62  74
ENDBRANCH  60  62
ENDBRANCH  57  58
BRANCH  57  78
ATOM     78  CB  ASP A   7      30.454 -11.147   4.853  0.00  0.00    +0.143 C 
BRANCH  78  79
ATOM     79  CG  ASP A   7      29.407 -11.793   5.744  0.00  0.00    +0.367 C 
ATOM     80  OD2 ASP A   7      29.746 -12.198   6.878  0.00  0.00    -0.246 OA
ATOM     81  OD1 ASP A   7      28.247 -11.910   5.298  0.00  0.00    -0.246 OA
ENDBRANCH  78  79
ENDBRANCH  57  78
ENDBRANCH  55  57
ENDBRANCH  52  53
BRANCH  52  82
ATOM     82  CB  PHE A   6      30.591  -8.358   9.324  0.00  0.00    +0.055 C 
BRANCH  82  83
ATOM     83  CG  PHE A   6      31.368  -9.420  10.046  0.00  0.00    -0.020 A 
ATOM     84  CD2 PHE A   6      32.297  -9.080  11.024  0.00  0.00    -0.004 A 
ATOM     85  CE2 PHE A   6      33.029 -10.072  11.691  0.00  0.00    -0.000 A 
ATOM     86  CZ  PHE A   6      32.832 -11.417  11.378  0.00  0.00    -0.000 A 
ATOM     87  CE1 PHE A   6      31.904 -11.766  10.398  0.00  0.00    -0.000 A 
ATOM     88  CD1 PHE A   6      31.179 -10.766   9.738  0.00  0.00    -0.004 A 
ENDBRANCH  82  83
ENDBRANCH  52  82
ENDBRANCH  49  52
ENDBRANCH  47  48
BRANCH  47  89
ATOM     89  CB  THR A   5      29.965  -3.875   6.371  0.00  0.00    +0.137 C 
ATOM     90  CG2 THR A   5      31.288  -3.124   6.271  0.00  0.00    +0.034 C 
BRANCH  89  91
ATOM     91  OG1 THR A   5      28.941  -3.077   5.766  0.00  0.00    -0.382 OA
ATOM     92  HG1 THR A   5      28.075  -3.553   5.825  0.00  0.00    +0.210 HD
ENDBRANCH  89  91
ENDBRANCH  47  89
ENDBRANCH   2  47
TORSDOF 37
REMARK  Name = ../refined-set-2016/3b5r/3b5r_pocket.pdb
REMARK  283 active torsions:
REMARK  status: ('A' for Active; 'I' for Inactive)
REMARK    1  A    between atoms: _1  and  _3
REMARK    2  A    between atoms: _3  and  _4
REMARK    3  A    between atoms: _3  and  _6
REMARK    4  A    between atoms: _9  and  _11
REMARK    5  A    between atoms: _11  and  _12
REMARK    6  A    between atoms: _15  and  _17
REMARK    7  A    between atoms: _17  and  _18
REMARK    8  A    between atoms: _17  and  _20
REMARK    9  A    between atoms: _20  and  _21
REMARK   10  A    between atoms: _27  and  _29
REMARK   11  A    between atoms: _29  and  _30
REMARK   12  A    between atoms: _29  and  _32
REMARK   13  A    between atoms: _32  and  _33
REMARK   14  A    between atoms: _36  and  _38
REMARK   15  A    between atoms: _38  and  _39
REMARK   16  A    between atoms: _38  and  _41
REMARK   17  A    between atoms: _41  and  _42
REMARK   18  A    between atoms: _45  and  _47
REMARK   19  A    between atoms: _47  and  _48
REMARK   20  A    between atoms: _47  and  _50
REMARK   21  A    between atoms: _50  and  _51
REMARK   22  A    between atoms: _53  and  _55
REMARK   23  A    between atoms: _55  and  _56
REMARK   24  A    between atoms: _55  and  _58
REMARK   25  A    between atoms: _58  and  _59
REMARK   26  A    between atoms: _61  and  _63
REMARK   27  A    between atoms: _63  and  _64
REMARK   28  A    between atoms: _63  and  _66
REMARK   29  A    between atoms: _66  and  _67
REMARK   30  A    between atoms: _70  and  _72
REMARK   31  A    between atoms: _72  and  _73
REMARK   32  A    between atoms: _72  and  _75
REMARK   33  A    between atoms: _75  and  _76
REMARK   34  A    between atoms: _81  and  _83
REMARK   35  A    between atoms: _83  and  _84
REMARK   36  A    between atoms: _83  and  _86
REMARK   37  A    between atoms: _86  and  _87
REMARK   38  A    between atoms: _87  and  _88
REMARK   39  A    between atoms: _91  and  _93
REMARK   40  A    between atoms: _93  and  _94
REMARK   41  A    between atoms: _93  and  _96
REMARK   42  A    between atoms: _96  and  _97
REMARK   43  A    between atoms: _100  and  _102
REMARK   44  A    between atoms: _102  and  _103
REMARK   45  A    between atoms: _105  and  _107
REMARK   46  A    between atoms: _107  and  _108
REMARK   47  A    between atoms: _107  and  _110
REMARK   48  A    between atoms: _110  and  _111
REMARK   49  A    between atoms: _111  and  _112
REMARK   50  A    between atoms: _115  and  _117
REMARK   51  A    between atoms: _117  and  _118
REMARK   52  A    between atoms: _117  and  _120
REMARK   53  A    between atoms: _120  and  _121
REMARK   54  A    between atoms: _121  and  _122
REMARK   55  A    between atoms: _122  and  _123
REMARK   56  A    between atoms: _132  and  _134
REMARK   57  A    between atoms: _134  and  _135
REMARK   58  A    between atoms: _134  and  _137
REMARK   59  A    between atoms: _137  and  _138
REMARK   60  A    between atoms: _138  and  _139
REMARK   61  A    between atoms: _144  and  _146
REMARK   62  A    between atoms: _146  and  _147
REMARK   63  A    between atoms: _146  and  _149
REMARK   64  A    between atoms: _149  and  _150
REMARK   65  A    between atoms: _153  and  _155
REMARK   66  A    between atoms: _155  and  _156
REMARK   67  A    between atoms: _155  and  _158
REMARK   68  A    between atoms: _158  and  _159
REMARK   69  A    between atoms: _162  and  _164
REMARK   70  A    between atoms: _164  and  _165
REMARK   71  A    between atoms: _164  and  _167
REMARK   72  A    between atoms: _167  and  _168
REMARK   73  A    between atoms: _168  and  _169
REMARK   74  A    between atoms: _174  and  _176
REMARK   75  A    between atoms: _176  and  _177
REMARK   76  A    between atoms: _176  and  _179
REMARK   77  A    between atoms: _179  and  _180
REMARK   78  A    between atoms: _185  and  _186
REMARK   79  A    between atoms: _188  and  _190
REMARK   80  A    between atoms: _190  and  _191
REMARK   81  A    between atoms: _190  and  _193
REMARK   82  A    between atoms: _193  and  _194
REMARK   83  A    between atoms: _196  and  _198
REMARK   84  A    between atoms: _198  and  _199
REMARK   85  A    between atoms: _198  and  _201
REMARK   86  A    between atoms: _201  and  _202
REMARK   87  A    between atoms: _212  and  _214
REMARK   88  A    between atoms: _214  and  _215
REMARK   89  A    between atoms: _214  and  _217
REMARK   90  A    between atoms: _217  and  _218
REMARK   91  A    between atoms: _218  and  _219
REMARK   92  A    between atoms: _221  and  _223
REMARK   93  A    between atoms: _223  and  _224
REMARK   94  A    between atoms: _226  and  _228
REMARK   95  A    between atoms: _228  and  _229
REMARK   96  A    between atoms: _228  and  _231
REMARK   97  A    between atoms: _231  and  _232
REMARK   98  A    between atoms: _235  and  _237
REMARK   99  A    between atoms: _237  and  _238
REMARK  100  A    between atoms: _237  and  _240
REMARK  101  A    between atoms: _240  and  _241
REMARK  102  A    between atoms: _241  and  _242
REMARK  103  A    between atoms: _244  and  _246
REMARK  104  A    between atoms: _246  and  _247
REMARK  105  A    between atoms: _246  and  _249
REMARK  106  A    between atoms: _252  and  _254
REMARK  107  A    between atoms: _254  and  _255
REMARK  108  A    between atoms: _254  and  _257
REMARK  109  A    between atoms: _257  and  _258
REMARK  110  A    between atoms: _264  and  _266
REMARK  111  A    between atoms: _266  and  _267
REMARK  112  A    between atoms: _270  and  _272
REMARK  113  A    between atoms: _272  and  _273
REMARK  114  A    between atoms: _272  and  _275
REMARK  115  A    between atoms: _275  and  _276
REMARK  116  A    between atoms: _276  and  _277
REMARK  117  A    between atoms: _279  and  _281
REMARK  118  A    between atoms: _281  and  _282
REMARK  119  A    between atoms: _284  and  _286
REMARK  120  A    between atoms: _286  and  _287
REMARK  121  A    between atoms: _286  and  _289
REMARK  122  A    between atoms: _289  and  _290
REMARK  123  A    between atoms: _300  and  _302
REMARK  124  A    between atoms: _302  and  _303
REMARK  125  A    between atoms: _302  and  _305
REMARK  126  A    between atoms: _305  and  _306
REMARK  127  A    between atoms: _306  and  _307
REMARK  128  A    between atoms: _307  and  _308
REMARK  129  A    between atoms: _317  and  _319
REMARK  130  A    between atoms: _319  and  _320
REMARK  131  A    between atoms: _319  and  _322
REMARK  132  A    between atoms: _322  and  _323
REMARK  133  A    between atoms: _325  and  _327
REMARK  134  A    between atoms: _327  and  _328
REMARK  135  A    between atoms: _327  and  _330
REMARK  136  A    between atoms: _330  and  _331
REMARK  137  A    between atoms: _334  and  _336
REMARK  138  A    between atoms: _336  and  _337
REMARK  139  A    between atoms: _336  and  _339
REMARK  140  A    between atoms: _339  and  _340
REMARK  141  A    between atoms: _345  and  _346
REMARK  142  A    between atoms: _348  and  _350
REMARK  143  A    between atoms: _350  and  _351
REMARK  144  A    between atoms: _350  and  _353
REMARK  145  A    between atoms: _353  and  _354
REMARK  146  A    between atoms: _360  and  _362
REMARK  147  A    between atoms: _362  and  _363
REMARK  148  A    between atoms: _366  and  _368
REMARK  149  A    between atoms: _368  and  _369
REMARK  150  A    between atoms: _368  and  _371
REMARK  151  A    between atoms: _371  and  _372
REMARK  152  A    between atoms: _375  and  _377
REMARK  153  A    between atoms: _377  and  _378
REMARK  154  A    between atoms: _377  and  _380
REMARK  155  A    between atoms: _380  and  _381
REMARK  156  A    between atoms: _387  and  _389
REMARK  157  A    between atoms: _389  and  _390
REMARK  158  A    between atoms: _389  and  _392
REMARK  159  A    between atoms: _392  and  _393
REMARK  160  A    between atoms: _395  and  _397
REMARK  161  A    between atoms: _397  and  _398
REMARK  162  A    between atoms: _397  and  _400
REMARK  163  A    between atoms: _400  and  _401
REMARK  164  A    between atoms: _401  and  _402
REMARK  165  A    between atoms: _404  and  _406
REMARK  166  A    between atoms: _406  and  _407
REMARK  167  A    between atoms: _406  and  _409
REMARK  168  A    between atoms: _409  and  _410
REMARK  169  A    between atoms: _410  and  _411
REMARK  170  A    between atoms: _416  and  _418
REMARK  171  A    between atoms: _418  and  _419
REMARK  172  A    between atoms: _418  and  _421
REMARK  173  A    between atoms: _423  and  _425
REMARK  174  A    between atoms: _425  and  _426
REMARK  175  A    between atoms: _425  and  _428
REMARK  176  A    between atoms: _428  and  _429
REMARK  177  A    between atoms: _429  and  _430
REMARK  178  A    between atoms: _432  and  _434
REMARK  179  A    between atoms: _434  and  _435
REMARK  180  A    between atoms: _434  and  _437
REMARK  181  A    between atoms: _437  and  _438
REMARK  182  A    between atoms: _441  and  _443
REMARK  183  A    between atoms: _443  and  _444
REMARK  184  A    between atoms: _443  and  _446
REMARK  185  A    between atoms: _449  and  _451
REMARK  186  A    between atoms: _451  and  _452
REMARK  187  A    between atoms: _451  and  _454
REMARK  188  A    between atoms: _454  and  _455
REMARK  189  A    between atoms: _458  and  _460
REMARK  190  A    between atoms: _460  and  _461
REMARK  191  A    between atoms: _464  and  _466
REMARK  192  A    between atoms: _466  and  _467
REMARK  193  A    between atoms: _466  and  _469
REMARK  194  A    between atoms: _469  and  _470
REMARK  195  A    between atoms: _473  and  _475
REMARK  196  A    between atoms: _475  and  _476
REMARK  197  A    between atoms: _475  and  _478
REMARK  198  A    between atoms: _478  and  _479
REMARK  199  A    between atoms: _484  and  _486
REMARK  200  A    between atoms: _486  and  _487
REMARK  201  A    between atoms: _486  and  _489
REMARK  202  A    between atoms: _489  and  _490
REMARK  203  A    between atoms: _490  and  _491
REMARK  204  A    between atoms: _496  and  _498
REMARK  205  A    between atoms: _498  and  _499
REMARK  206  A    between atoms: _498  and  _501
REMARK  207  A    between atoms: _501  and  _502
REMARK  208  A    between atoms: _508  and  _510
REMARK  209  A    between atoms: _510  and  _511
REMARK  210  A    between atoms: _510  and  _513
REMARK  211  A    between atoms: _513  and  _514
REMARK  212  A    between atoms: _517  and  _519
REMARK  213  A    between atoms: _519  and  _520
REMARK  214  A    between atoms: _519  and  _522
REMARK  215  A    between atoms: _522  and  _523
REMARK  216  A    between atoms: _529  and  _531
REMARK  217  A    between atoms: _531  and  _532
REMARK  218  A    between atoms: _531  and  _534
REMARK  219  A    between atoms: _534  and  _535
REMARK  220  A    between atoms: _538  and  _540
REMARK  221  A    between atoms: _540  and  _541
REMARK  222  A    between atoms: _540  and  _543
REMARK  223  A    between atoms: _543  and  _544
REMARK  224  A    between atoms: _547  and  _549
REMARK  225  A    between atoms: _549  and  _550
REMARK  226  A    between atoms: _549  and  _552
REMARK  227  A    between atoms: _552  and  _553
REMARK  228  A    between atoms: _556  and  _558
REMARK  229  A    between atoms: _558  and  _559
REMARK  230  A    between atoms: _558  and  _561
REMARK  231  A    between atoms: _564  and  _566
REMARK  232  A    between atoms: _566  and  _567
REMARK  233  A    between atoms: _566  and  _569
REMARK  234  A    between atoms: _569  and  _570
REMARK  235  A    between atoms: _573  and  _575
REMARK  236  A    between atoms: _575  and  _576
REMARK  237  A    between atoms: _575  and  _578
REMARK  238  A    between atoms: _578  and  _579
REMARK  239  A    between atoms: _586  and  _587
REMARK  240  A    between atoms: _592  and  _594
REMARK  241  A    between atoms: _594  and  _595
REMARK  242  A    between atoms: _594  and  _597
REMARK  243  A    between atoms: _597  and  _598
REMARK  244  A    between atoms: _598  and  _599
REMARK  245  A    between atoms: _601  and  _603
REMARK  246  A    between atoms: _603  and  _604
REMARK  247  A    between atoms: _603  and  _606
REMARK  248  A    between atoms: _606  and  _607
REMARK  249  A    between atoms: _607  and  _608
REMARK  250  A    between atoms: _610  and  _612
REMARK  251  A    between atoms: _612  and  _613
REMARK  252  A    between atoms: _616  and  _618
REMARK  253  A    between atoms: _618  and  _619
REMARK  254  A    between atoms: _618  and  _621
REMARK  255  A    between atoms: _621  and  _622
REMARK  256  A    between atoms: _625  and  _627
REMARK  257  A    between atoms: _627  and  _628
REMARK  258  A    between atoms: _627  and  _630
REMARK  259  A    between atoms: _630  and  _631
REMARK  260  A    between atoms: _634  and  _636
REMARK  261  A    between atoms: _636  and  _637
REMARK  262  A    between atoms: _636  and  _639
REMARK  263  A    between atoms: _639  and  _640
REMARK  264  A    between atoms: _642  and  _644
REMARK  265  A    between atoms: _644  and  _645
REMARK  266  A    between atoms: _644  and  _647
REMARK  267  A    between atoms: _650  and  _652
REMARK  268  A    between atoms: _652  and  _653
REMARK  269  A    between atoms: _652  and  _655
REMARK  270  A    between atoms: _655  and  _656
REMARK  271  A    between atoms: _656  and  _657
REMARK  272  A    between atoms: _662  and  _664
REMARK  273  A    between atoms: _664  and  _665
REMARK  274  A    between atoms: _664  and  _667
REMARK  275  A    between atoms: _671  and  _672
REMARK  276  A    between atoms: _677  and  _679
REMARK  277  A    between atoms: _679  and  _680
REMARK  278  A    between atoms: _679  and  _682
REMARK  279  A    between atoms: _682  and  _683
REMARK  280  A    between atoms: _686  and  _688
REMARK  281  A    between atoms: _688  and  _689
REMARK  282  A    between atoms: _688  and  _691
REMARK  283  A    between atoms: _691  and  _692
REMARK                            x       y       z     vdW  Elec       q    Type
REMARK                         _______ _______ _______ _____ _____    ______ ____
ROOT
ATOM      1  C   ASP A   2      39.140   0.004   1.974  0.00  0.00    +0.241 C 
ATOM      2  N   PHE A   3      39.426  -0.601   3.125  0.00  0.00    -0.297 N 
ATOM      3  H   PHE A   3      40.153  -1.344   3.151  0.00  0.00    +0.150 HD
ATOM      4  O   ASP A   2      38.273   0.880   1.870  0.00  0.00    -0.273 OA
ENDROOT
BRANCH   1   5
ATOM      5  CA  ASP A   2      39.935  -0.442   0.753  0.00  0.00    +0.160 C 
BRANCH   5   8
ATOM      6  C   VAL A   1      39.079  -2.559  -0.099  0.00  0.00    +0.238 C 
ATOM      7  O   VAL A   1      39.735  -3.211   0.721  0.00  0.00    -0.274 OA
ATOM      8  N   ASP A   2      39.107  -1.231  -0.156  0.00  0.00    -0.297 N 
ATOM      9  H   ASP A   2      38.525  -0.742  -0.865  0.00  0.00    +0.150 HD
BRANCH   6  10
ATOM     10  CA  VAL A   1      38.181  -3.256  -1.122  0.00  0.00    +0.145 C 
BRANCH  10  11
ATOM     11  CB  VAL A   1      36.900  -3.758  -0.423  0.00  0.00    +0.025 C 
ATOM     12  CG2 VAL A   1      36.263  -2.630   0.368  0.00  0.00    +0.002 C 
ATOM     13  CG1 VAL A   1      35.918  -4.282  -1.460  0.00  0.00    +0.002 C 
ENDBRANCH  10  11
BRANCH  10  14
ATOM     14  N   VAL A   1      38.909  -4.352  -1.755  0.00  0.00    -0.238 NA
ATOM     15  H   VAL A   1      38.953  -5.277  -1.283  0.00  0.00    +0.142 HD
ENDBRANCH  10  14
ENDBRANCH   6  10
ENDBRANCH   5   8
BRANCH   5  16
ATOM     16  CB  ASP A   2      40.484   0.797   0.032  0.00  0.00    +0.143 C 
BRANCH  16  17
ATOM     17  CG  ASP A   2      41.089   0.469  -1.324  0.00  0.00    +0.367 C 
ATOM     18  OD2 ASP A   2      42.299   0.729  -1.523  0.00  0.00    -0.246 OA
ATOM     19  OD1 ASP A   2      40.349  -0.048  -2.193  0.00  0.00    -0.246 OA
ENDBRANCH  16  17
ENDBRANCH   5  16
ENDBRANCH   1   5
BRANCH   2  20
ATOM     20  CA  PHE A   3      38.728  -0.229   4.347  0.00  0.00    +0.153 C 
BRANCH  20  21
ATOM     21  C   PHE A   3      39.510   0.791   5.151  0.00  0.00    +0.244 C 
ATOM     22  O   PHE A   3      40.652   0.552   5.544  0.00  0.00    -0.273 OA
ATOM     23  N   PRO A   4      38.902   1.956   5.397  0.00  0.00    -0.273 N 
ATOM     24  CA  PRO A   4      39.548   3.020   6.165  0.00  0.00    +0.140 C 
ATOM     25  CB  PRO A   4      38.485   4.113   6.190  0.00  0.00    +0.030 C 
ATOM     26  CG  PRO A   4      37.756   3.902   4.908  0.00  0.00    +0.024 C 
ATOM     27  CD  PRO A   4      37.600   2.405   4.879  0.00  0.00    +0.094 C 
BRANCH  24  28
ATOM     28  C   PRO A   4      39.905   2.521   7.565  0.00  0.00    +0.227 C 
ATOM     29  O   PRO A   4      39.360   1.521   8.035  0.00  0.00    -0.286 OA
ENDBRANCH  24  28
ENDBRANCH  20  21
BRANCH  20  30
ATOM     30  CB  PHE A   3      38.433  -1.453   5.220  0.00  0.00    +0.055 C 
BRANCH  30  31
ATOM     31  CG  PHE A   3      37.163  -2.163   4.848  0.00  0.00    -0.020 A 
ATOM     32  CD2 PHE A   3      35.940  -1.710   5.327  0.00  0.00    -0.004 A 
ATOM     33  CE2 PHE A   3      34.747  -2.331   4.950  0.00  0.00    -0.000 A 
ATOM     34  CZ  PHE A   3      34.774  -3.418   4.088  0.00  0.00    -0.000 A 
ATOM     35  CE1 PHE A   3      35.996  -3.884   3.604  0.00  0.00    -0.000 A 
ATOM     36  CD1 PHE A   3      37.183  -3.253   3.987  0.00  0.00    -0.004 A 
ENDBRANCH  30  31
ENDBRANCH  20  30
ENDBRANCH   2  20
TORSDOF 12
REMARK  Name = ../refined-set-2016/3b5r/3b5r_pocket.pdb
REMARK  283 active torsions:
REMARK  status: ('A' for Active; 'I' for Inactive)
REMARK    1  A    between atoms: _1  and  _3
REMARK    2  A    between atoms: _3  and  _4
REMARK    3  A    between atoms: _3  and  _6
REMARK    4  A    between atoms: _9  and  _11
REMARK    5  A    between atoms: _11  and  _12
REMARK    6  A    between atoms: _15  and  _17
REMARK    7  A    between atoms: _17  and  _18
REMARK    8  A    between atoms: _17  and  _20
REMARK    9  A    between atoms: _20  and  _21
REMARK   10  A    between atoms: _27  and  _29
REMARK   11  A    between atoms: _29  and  _30
REMARK   12  A    between atoms: _29  and  _32
REMARK   13  A    between atoms: _32  and  _33
REMARK   14  A    between atoms: _36  and  _38
REMARK   15  A    between atoms: _38  and  _39
REMARK   16  A    between atoms: _38  and  _41
REMARK   17  A    between atoms: _41  and  _42
REMARK   18  A    between atoms: _45  and  _47
REMARK   19  A    between atoms: _47  and  _48
REMARK   20  A    between atoms: _47  and  _50
REMARK   21  A    between atoms: _50  and  _51
REMARK   22  A    between atoms: _53  and  _55
REMARK   23  A    between atoms: _55  and  _56
REMARK   24  A    between atoms: _55  and  _58
REMARK   25  A    between atoms: _58  and  _59
REMARK   26  A    between atoms: _61  and  _63
REMARK   27  A    between atoms: _63  and  _64
REMARK   28  A    between atoms: _63  and  _66
REMARK   29  A    between atoms: _66  and  _67
REMARK   30  A    between atoms: _70  and  _72
REMARK   31  A    between atoms: _72  and  _73
REMARK   32  A    between atoms: _72  and  _75
REMARK   33  A    between atoms: _75  and  _76
REMARK   34  A    between atoms: _81  and  _83
REMARK   35  A    between atoms: _83  and  _84
REMARK   36  A    between atoms: _83  and  _86
REMARK   37  A    between atoms: _86  and  _87
REMARK   38  A    between atoms: _87  and  _88
REMARK   39  A    between atoms: _91  and  _93
REMARK   40  A    between atoms: _93  and  _94
REMARK   41  A    between atoms: _93  and  _96
REMARK   42  A    between atoms: _96  and  _97
REMARK   43  A    between atoms: _100  and  _102
REMARK   44  A    between atoms: _102  and  _103
REMARK   45  A    between atoms: _105  and  _107
REMARK   46  A    between atoms: _107  and  _108
REMARK   47  A    between atoms: _107  and  _110
REMARK   48  A    between atoms: _110  and  _111
REMARK   49  A    between atoms: _111  and  _112
REMARK   50  A    between atoms: _115  and  _117
REMARK   51  A    between atoms: _117  and  _118
REMARK   52  A    between atoms: _117  and  _120
REMARK   53  A    between atoms: _120  and  _121
REMARK   54  A    between atoms: _121  and  _122
REMARK   55  A    between atoms: _122  and  _123
REMARK   56  A    between atoms: _132  and  _134
REMARK   57  A    between atoms: _134  and  _135
REMARK   58  A    between atoms: _134  and  _137
REMARK   59  A    between atoms: _137  and  _138
REMARK   60  A    between atoms: _138  and  _139
REMARK   61  A    between atoms: _144  and  _146
REMARK   62  A    between atoms: _146  and  _147
REMARK   63  A    between atoms: _146  and  _149
REMARK   64  A    between atoms: _149  and  _150
REMARK   65  A    between atoms: _153  and  _155
REMARK   66  A    between atoms: _155  and  _156
REMARK   67  A    between atoms: _155  and  _158
REMARK   68  A    between atoms: _158  and  _159
REMARK   69  A    between atoms: _162  and  _164
REMARK   70  A    between atoms: _164  and  _165
REMARK   71  A    between atoms: _164  and  _167
REMARK   72  A    between atoms: _167  and  _168
REMARK   73  A    between atoms: _168  and  _169
REMARK   74  A    between atoms: _174  and  _176
REMARK   75  A    between atoms: _176  and  _177
REMARK   76  A    between atoms: _176  and  _179
REMARK   77  A    between atoms: _179  and  _180
REMARK   78  A    between atoms: _185  and  _186
REMARK   79  A    between atoms: _188  and  _190
REMARK   80  A    between atoms: _190  and  _191
REMARK   81  A    between atoms: _190  and  _193
REMARK   82  A    between atoms: _193  and  _194
REMARK   83  A    between atoms: _196  and  _198
REMARK   84  A    between atoms: _198  and  _199
REMARK   85  A    between atoms: _198  and  _201
REMARK   86  A    between atoms: _201  and  _202
REMARK   87  A    between atoms: _212  and  _214
REMARK   88  A    between atoms: _214  and  _215
REMARK   89  A    between atoms: _214  and  _217
REMARK   90  A    between atoms: _217  and  _218
REMARK   91  A    between atoms: _218  and  _219
REMARK   92  A    between atoms: _221  and  _223
REMARK   93  A    between atoms: _223  and  _224
REMARK   94  A    between atoms: _226  and  _228
REMARK   95  A    between atoms: _228  and  _229
REMARK   96  A    between atoms: _228  and  _231
REMARK   97  A    between atoms: _231  and  _232
REMARK   98  A    between atoms: _235  and  _237
REMARK   99  A    between atoms: _237  and  _238
REMARK  100  A    between atoms: _237  and  _240
REMARK  101  A    between atoms: _240  and  _241
REMARK  102  A    between atoms: _241  and  _242
REMARK  103  A    between atoms: _244  and  _246
REMARK  104  A    between atoms: _246  and  _247
REMARK  105  A    between atoms: _246  and  _249
REMARK  106  A    between atoms: _252  and  _254
REMARK  107  A    between atoms: _254  and  _255
REMARK  108  A    between atoms: _254  and  _257
REMARK  109  A    between atoms: _257  and  _258
REMARK  110  A    between atoms: _264  and  _266
REMARK  111  A    between atoms: _266  and  _267
REMARK  112  A    between atoms: _270  and  _272
REMARK  113  A    between atoms: _272  and  _273
REMARK  114  A    between atoms: _272  and  _275
REMARK  115  A    between atoms: _275  and  _276
REMARK  116  A    between atoms: _276  and  _277
REMARK  117  A    between atoms: _279  and  _281
REMARK  118  A    between atoms: _281  and  _282
REMARK  119  A    between atoms: _284  and  _286
REMARK  120  A    between atoms: _286  and  _287
REMARK  121  A    between atoms: _286  and  _289
REMARK  122  A    between atoms: _289  and  _290
REMARK  123  A    between atoms: _300  and  _302
REMARK  124  A    between atoms: _302  and  _303
REMARK  125  A    between atoms: _302  and  _305
REMARK  126  A    between atoms: _305  and  _306
REMARK  127  A    between atoms: _306  and  _307
REMARK  128  A    between atoms: _307  and  _308
REMARK  129  A    between atoms: _317  and  _319
REMARK  130  A    between atoms: _319  and  _320
REMARK  131  A    between atoms: _319  and  _322
REMARK  132  A    between atoms: _322  and  _323
REMARK  133  A    between atoms: _325  and  _327
REMARK  134  A    between atoms: _327  and  _328
REMARK  135  A    between atoms: _327  and  _330
REMARK  136  A    between atoms: _330  and  _331
REMARK  137  A    between atoms: _334  and  _336
REMARK  138  A    between atoms: _336  and  _337
REMARK  139  A    between atoms: _336  and  _339
REMARK  140  A    between atoms: _339  and  _340
REMARK  141  A    between atoms: _345  and  _346
REMARK  142  A    between atoms: _348  and  _350
REMARK  143  A    between atoms: _350  and  _351
REMARK  144  A    between atoms: _350  and  _353
REMARK  145  A    between atoms: _353  and  _354
REMARK  146  A    between atoms: _360  and  _362
REMARK  147  A    between atoms: _362  and  _363
REMARK  148  A    between atoms: _366  and  _368
REMARK  149  A    between atoms: _368  and  _369
REMARK  150  A    between atoms: _368  and  _371
REMARK  151  A    between atoms: _371  and  _372
REMARK  152  A    between atoms: _375  and  _377
REMARK  153  A    between atoms: _377  and  _378
REMARK  154  A    between atoms: _377  and  _380
REMARK  155  A    between atoms: _380  and  _381
REMARK  156  A    between atoms: _387  and  _389
REMARK  157  A    between atoms: _389  and  _390
REMARK  158  A    between atoms: _389  and  _392
REMARK  159  A    between atoms: _392  and  _393
REMARK  160  A    between atoms: _395  and  _397
REMARK  161  A    between atoms: _397  and  _398
REMARK  162  A    between atoms: _397  and  _400
REMARK  163  A    between atoms: _400  and  _401
REMARK  164  A    between atoms: _401  and  _402
REMARK  165  A    between atoms: _404  and  _406
REMARK  166  A    between atoms: _406  and  _407
REMARK  167  A    between atoms: _406  and  _409
REMARK  168  A    between atoms: _409  and  _410
REMARK  169  A    between atoms: _410  and  _411
REMARK  170  A    between atoms: _416  and  _418
REMARK  171  A    between atoms: _418  and  _419
REMARK  172  A    between atoms: _418  and  _421
REMARK  173  A    between atoms: _423  and  _425
REMARK  174  A    between atoms: _425  and  _426
REMARK  175  A    between atoms: _425  and  _428
REMARK  176  A    between atoms: _428  and  _429
REMARK  177  A    between atoms: _429  and  _430
REMARK  178  A    between atoms: _432  and  _434
REMARK  179  A    between atoms: _434  and  _435
REMARK  180  A    between atoms: _434  and  _437
REMARK  181  A    between atoms: _437  and  _438
REMARK  182  A    between atoms: _441  and  _443
REMARK  183  A    between atoms: _443  and  _444
REMARK  184  A    between atoms: _443  and  _446
REMARK  185  A    between atoms: _449  and  _451
REMARK  186  A    between atoms: _451  and  _452
REMARK  187  A    between atoms: _451  and  _454
REMARK  188  A    between atoms: _454  and  _455
REMARK  189  A    between atoms: _458  and  _460
REMARK  190  A    between atoms: _460  and  _461
REMARK  191  A    between atoms: _464  and  _466
REMARK  192  A    between atoms: _466  and  _467
REMARK  193  A    between atoms: _466  and  _469
REMARK  194  A    between atoms: _469  and  _470
REMARK  195  A    between atoms: _473  and  _475
REMARK  196  A    between atoms: _475  and  _476
REMARK  197  A    between atoms: _475  and  _478
REMARK  198  A    between atoms: _478  and  _479
REMARK  199  A    between atoms: _484  and  _486
REMARK  200  A    between atoms: _486  and  _487
REMARK  201  A    between atoms: _486  and  _489
REMARK  202  A    between atoms: _489  and  _490
REMARK  203  A    between atoms: _490  and  _491
REMARK  204  A    between atoms: _496  and  _498
REMARK  205  A    between atoms: _498  and  _499
REMARK  206  A    between atoms: _498  and  _501
REMARK  207  A    between atoms: _501  and  _502
REMARK  208  A    between atoms: _508  and  _510
REMARK  209  A    between atoms: _510  and  _511
REMARK  210  A    between atoms: _510  and  _513
REMARK  211  A    between atoms: _513  and  _514
REMARK  212  A    between atoms: _517  and  _519
REMARK  213  A    between atoms: _519  and  _520
REMARK  214  A    between atoms: _519  and  _522
REMARK  215  A    between atoms: _522  and  _523
REMARK  216  A    between atoms: _529  and  _531
REMARK  217  A    between atoms: _531  and  _532
REMARK  218  A    between atoms: _531  and  _534
REMARK  219  A    between atoms: _534  and  _535
REMARK  220  A    between atoms: _538  and  _540
REMARK  221  A    between atoms: _540  and  _541
REMARK  222  A    between atoms: _540  and  _543
REMARK  223  A    between atoms: _543  and  _544
REMARK  224  A    between atoms: _547  and  _549
REMARK  225  A    between atoms: _549  and  _550
REMARK  226  A    between atoms: _549  and  _552
REMARK  227  A    between atoms: _552  and  _553
REMARK  228  A    between atoms: _556  and  _558
REMARK  229  A    between atoms: _558  and  _559
REMARK  230  A    between atoms: _558  and  _561
REMARK  231  A    between atoms: _564  and  _566
REMARK  232  A    between atoms: _566  and  _567
REMARK  233  A    between atoms: _566  and  _569
REMARK  234  A    between atoms: _569  and  _570
REMARK  235  A    between atoms: _573  and  _575
REMARK  236  A    between atoms: _575  and  _576
REMARK  237  A    between atoms: _575  and  _578
REMARK  238  A    between atoms: _578  and  _579
REMARK  239  A    between atoms: _586  and  _587
REMARK  240  A    between atoms: _592  and  _594
REMARK  241  A    between atoms: _594  and  _595
REMARK  242  A    between atoms: _594  and  _597
REMARK  243  A    between atoms: _597  and  _598
REMARK  244  A    between atoms: _598  and  _599
REMARK  245  A    between atoms: _601  and  _603
REMARK  246  A    between atoms: _603  and  _604
REMARK  247  A    between atoms: _603  and  _606
REMARK  248  A    between atoms: _606  and  _607
REMARK  249  A    between atoms: _607  and  _608
REMARK  250  A    between atoms: _610  and  _612
REMARK  251  A    between atoms: _612  and  _613
REMARK  252  A    between atoms: _616  and  _618
REMARK  253  A    between atoms: _618  and  _619
REMARK  254  A    between atoms: _618  and  _621
REMARK  255  A    between atoms: _621  and  _622
REMARK  256  A    between atoms: _625  and  _627
REMARK  257  A    between atoms: _627  and  _628
REMARK  258  A    between atoms: _627  and  _630
REMARK  259  A    between atoms: _630  and  _631
REMARK  260  A    between atoms: _634  and  _636
REMARK  261  A    between atoms: _636  and  _637
REMARK  262  A    between atoms: _636  and  _639
REMARK  263  A    between atoms: _639  and  _640
REMARK  264  A    between atoms: _642  and  _644
REMARK  265  A    between atoms: _644  and  _645
REMARK  266  A    between atoms: _644  and  _647
REMARK  267  A    between atoms: _650  and  _652
REMARK  268  A    between atoms: _652  and  _653
REMARK  269  A    between atoms: _652  and  _655
REMARK  270  A    between atoms: _655  and  _656
REMARK  271  A    between atoms: _656  and  _657
REMARK  272  A    between atoms: _662  and  _664
REMARK  273  A    between atoms: _664  and  _665
REMARK  274  A    between atoms: _664  and  _667
REMARK  275  A    between atoms: _671  and  _672
REMARK  276  A    between atoms: _677  and  _679
REMARK  277  A    between atoms: _679  and  _680
REMARK  278  A    between atoms: _679  and  _682
REMARK  279  A    between atoms: _682  and  _683
REMARK  280  A    between atoms: _686  and  _688
REMARK  281  A    between atoms: _688  and  _689
REMARK  282  A    between atoms: _688  and  _691
REMARK  283  A    between atoms: _691  and  _692
REMARK                            x       y       z     vdW  Elec       q    Type
REMARK                         _______ _______ _______ _____ _____    ______ ____
ROOT
ATOM      1  CA  MET A   2      35.862   1.780   9.976  0.00  0.00    +0.149 C 
ENDROOT
BRANCH   1   4
ATOM      2  C   MET A   1      37.310   2.818  11.607  0.00  0.00    +0.238 C 
ATOM      3  O   MET A   1      36.787   2.171  12.519  0.00  0.00    -0.274 OA
ATOM      4  N   MET A   2      36.938   2.696  10.335  0.00  0.00    -0.297 N 
ATOM      5  H   MET A   2      37.414   3.254   9.598  0.00  0.00    +0.150 HD
BRANCH   2   6
ATOM      6  CA  MET A   1      38.422   3.810  11.912  0.00  0.00    +0.146 C 
BRANCH   6   7
ATOM      7  N   MET A   1      39.512   3.830  10.938  0.00  0.00    -0.238 NA
ATOM      8  H   MET A   1      39.811   4.738  10.529  0.00  0.00    +0.142 HD
ENDBRANCH   6   7
BRANCH   6   9
ATOM      9  CB  MET A   1      37.806   5.207  12.069  0.00  0.00    +0.038 C 
BRANCH   9  10
ATOM     10  CG  MET A   1      38.473   6.071  13.129  0.00  0.00    +0.060 C 
BRANCH  10  11
ATOM     11  SD  MET A   1      38.536   5.269  14.764  0.00  0.00    -0.139 S 
ATOM     12  CE  MET A   1      36.842   5.496  15.318  0.00  0.00    +0.069 C 
ENDBRANCH  10  11
ENDBRANCH   9  10
ENDBRANCH   6   9
ENDBRANCH   2   6
ENDBRANCH   1   4
BRANCH   1  13
ATOM     13  C   MET A   2      36.235   0.326  10.255  0.00  0.00    +0.241 C 
ATOM     14  O   MET A   2      35.468  -0.397  10.886  0.00  0.00    -0.273 OA
ATOM     15  N   ALA A   3      37.412  -0.098   9.801  0.00  0.00    -0.298 N 
ATOM     16  H   ALA A   3      38.027   0.561   9.283  0.00  0.00    +0.150 HD
BRANCH  15  17
ATOM     17  CA  ALA A   3      37.856  -1.475  10.018  0.00  0.00    +0.137 C 
ATOM     18  CB  ALA A   3      39.261  -1.674   9.449  0.00  0.00    +0.030 C 
BRANCH  17  19
ATOM     19  C   ALA A   3      37.849  -1.827  11.500  0.00  0.00    +0.227 C 
ATOM     20  O   ALA A   3      37.442  -2.926  11.888  0.00  0.00    -0.286 OA
ENDBRANCH  17  19
ENDBRANCH  15  17
ENDBRANCH   1  13
BRANCH   1  21
ATOM     21  CB  MET A   2      35.468   1.939   8.505  0.00  0.00    +0.041 C 
BRANCH  21  22
ATOM     22  CG  MET A   2      34.177   1.204   8.154  0.00  0.00    +0.060 C 
BRANCH  22  23
ATOM     23  SD  MET A   2      33.644   1.398   6.442  0.00  0.00    -0.139 S 
ATOM     24  CE  MET A   2      32.925   3.067   6.516  0.00  0.00    +0.069 C 
ENDBRANCH  22  23
ENDBRANCH  21  22
ENDBRANCH   1  21
TORSDOF 12
REMARK  Name = ../refined-set-2016/3b5r/3b5r_pocket.pdb
REMARK  283 active torsions:
REMARK  status: ('A' for Active; 'I' for Inactive)
REMARK    1  A    between atoms: _1  and  _3
REMARK    2  A    between atoms: _3  and  _4
REMARK    3  A    between atoms: _3  and  _6
REMARK    4  A    between atoms: _9  and  _11
REMARK    5  A    between atoms: _11  and  _12
REMARK    6  A    between atoms: _15  and  _17
REMARK    7  A    between atoms: _17  and  _18
REMARK    8  A    between atoms: _17  and  _20
REMARK    9  A    between atoms: _20  and  _21
REMARK   10  A    between atoms: _27  and  _29
REMARK   11  A    between atoms: _29  and  _30
REMARK   12  A    between atoms: _29  and  _32
REMARK   13  A    between atoms: _32  and  _33
REMARK   14  A    between atoms: _36  and  _38
REMARK   15  A    between atoms: _38  and  _39
REMARK   16  A    between atoms: _38  and  _41
REMARK   17  A    between atoms: _41  and  _42
REMARK   18  A    between atoms: _45  and  _47
REMARK   19  A    between atoms: _47  and  _48
REMARK   20  A    between atoms: _47  and  _50
REMARK   21  A    between atoms: _50  and  _51
REMARK   22  A    between atoms: _53  and  _55
REMARK   23  A    between atoms: _55  and  _56
REMARK   24  A    between atoms: _55  and  _58
REMARK   25  A    between atoms: _58  and  _59
REMARK   26  A    between atoms: _61  and  _63
REMARK   27  A    between atoms: _63  and  _64
REMARK   28  A    between atoms: _63  and  _66
REMARK   29  A    between atoms: _66  and  _67
REMARK   30  A    between atoms: _70  and  _72
REMARK   31  A    between atoms: _72  and  _73
REMARK   32  A    between atoms: _72  and  _75
REMARK   33  A    between atoms: _75  and  _76
REMARK   34  A    between atoms: _81  and  _83
REMARK   35  A    between atoms: _83  and  _84
REMARK   36  A    between atoms: _83  and  _86
REMARK   37  A    between atoms: _86  and  _87
REMARK   38  A    between atoms: _87  and  _88
REMARK   39  A    between atoms: _91  and  _93
REMARK   40  A    between atoms: _93  and  _94
REMARK   41  A    between atoms: _93  and  _96
REMARK   42  A    between atoms: _96  and  _97
REMARK   43  A    between atoms: _100  and  _102
REMARK   44  A    between atoms: _102  and  _103
REMARK   45  A    between atoms: _105  and  _107
REMARK   46  A    between atoms: _107  and  _108
REMARK   47  A    between atoms: _107  and  _110
REMARK   48  A    between atoms: _110  and  _111
REMARK   49  A    between atoms: _111  and  _112
REMARK   50  A    between atoms: _115  and  _117
REMARK   51  A    between atoms: _117  and  _118
REMARK   52  A    between atoms: _117  and  _120
REMARK   53  A    between atoms: _120  and  _121
REMARK   54  A    between atoms: _121  and  _122
REMARK   55  A    between atoms: _122  and  _123
REMARK   56  A    between atoms: _132  and  _134
REMARK   57  A    between atoms: _134  and  _135
REMARK   58  A    between atoms: _134  and  _137
REMARK   59  A    between atoms: _137  and  _138
REMARK   60  A    between atoms: _138  and  _139
REMARK   61  A    between atoms: _144  and  _146
REMARK   62  A    between atoms: _146  and  _147
REMARK   63  A    between atoms: _146  and  _149
REMARK   64  A    between atoms: _149  and  _150
REMARK   65  A    between atoms: _153  and  _155
REMARK   66  A    between atoms: _155  and  _156
REMARK   67  A    between atoms: _155  and  _158
REMARK   68  A    between atoms: _158  and  _159
REMARK   69  A    between atoms: _162  and  _164
REMARK   70  A    between atoms: _164  and  _165
REMARK   71  A    between atoms: _164  and  _167
REMARK   72  A    between atoms: _167  and  _168
REMARK   73  A    between atoms: _168  and  _169
REMARK   74  A    between atoms: _174  and  _176
REMARK   75  A    between atoms: _176  and  _177
REMARK   76  A    between atoms: _176  and  _179
REMARK   77  A    between atoms: _179  and  _180
REMARK   78  A    between atoms: _185  and  _186
REMARK   79  A    between atoms: _188  and  _190
REMARK   80  A    between atoms: _190  and  _191
REMARK   81  A    between atoms: _190  and  _193
REMARK   82  A    between atoms: _193  and  _194
REMARK   83  A    between atoms: _196  and  _198
REMARK   84  A    between atoms: _198  and  _199
REMARK   85  A    between atoms: _198  and  _201
REMARK   86  A    between atoms: _201  and  _202
REMARK   87  A    between atoms: _212  and  _214
REMARK   88  A    between atoms: _214  and  _215
REMARK   89  A    between atoms: _214  and  _217
REMARK   90  A    between atoms: _217  and  _218
REMARK   91  A    between atoms: _218  and  _219
REMARK   92  A    between atoms: _221  and  _223
REMARK   93  A    between atoms: _223  and  _224
REMARK   94  A    between atoms: _226  and  _228
REMARK   95  A    between atoms: _228  and  _229
REMARK   96  A    between atoms: _228  and  _231
REMARK   97  A    between atoms: _231  and  _232
REMARK   98  A    between atoms: _235  and  _237
REMARK   99  A    between atoms: _237  and  _238
REMARK  100  A    between atoms: _237  and  _240
REMARK  101  A    between atoms: _240  and  _241
REMARK  102  A    between atoms: _241  and  _242
REMARK  103  A    between atoms: _244  and  _246
REMARK  104  A    between atoms: _246  and  _247
REMARK  105  A    between atoms: _246  and  _249
REMARK  106  A    between atoms: _252  and  _254
REMARK  107  A    between atoms: _254  and  _255
REMARK  108  A    between atoms: _254  and  _257
REMARK  109  A    between atoms: _257  and  _258
REMARK  110  A    between atoms: _264  and  _266
REMARK  111  A    between atoms: _266  and  _267
REMARK  112  A    between atoms: _270  and  _272
REMARK  113  A    between atoms: _272  and  _273
REMARK  114  A    between atoms: _272  and  _275
REMARK  115  A    between atoms: _275  and  _276
REMARK  116  A    between atoms: _276  and  _277
REMARK  117  A    between atoms: _279  and  _281
REMARK  118  A    between atoms: _281  and  _282
REMARK  119  A    between atoms: _284  and  _286
REMARK  120  A    between atoms: _286  and  _287
REMARK  121  A    between atoms: _286  and  _289
REMARK  122  A    between atoms: _289  and  _290
REMARK  123  A    between atoms: _300  and  _302
REMARK  124  A    between atoms: _302  and  _303
REMARK  125  A    between atoms: _302  and  _305
REMARK  126  A    between atoms: _305  and  _306
REMARK  127  A    between atoms: _306  and  _307
REMARK  128  A    between atoms: _307  and  _308
REMARK  129  A    between atoms: _317  and  _319
REMARK  130  A    between atoms: _319  and  _320
REMARK  131  A    between atoms: _319  and  _322
REMARK  132  A    between atoms: _322  and  _323
REMARK  133  A    between atoms: _325  and  _327
REMARK  134  A    between atoms: _327  and  _328
REMARK  135  A    between atoms: _327  and  _330
REMARK  136  A    between atoms: _330  and  _331
REMARK  137  A    between atoms: _334  and  _336
REMARK  138  A    between atoms: _336  and  _337
REMARK  139  A    between atoms: _336  and  _339
REMARK  140  A    between atoms: _339  and  _340
REMARK  141  A    between atoms: _345  and  _346
REMARK  142  A    between atoms: _348  and  _350
REMARK  143  A    between atoms: _350  and  _351
REMARK  144  A    between atoms: _350  and  _353
REMARK  145  A    between atoms: _353  and  _354
REMARK  146  A    between atoms: _360  and  _362
REMARK  147  A    between atoms: _362  and  _363
REMARK  148  A    between atoms: _366  and  _368
REMARK  149  A    between atoms: _368  and  _369
REMARK  150  A    between atoms: _368  and  _371
REMARK  151  A    between atoms: _371  and  _372
REMARK  152  A    between atoms: _375  and  _377
REMARK  153  A    between atoms: _377  and  _378
REMARK  154  A    between atoms: _377  and  _380
REMARK  155  A    between atoms: _380  and  _381
REMARK  156  A    between atoms: _387  and  _389
REMARK  157  A    between atoms: _389  and  _390
REMARK  158  A    between atoms: _389  and  _392
REMARK  159  A    between atoms: _392  and  _393
REMARK  160  A    between atoms: _395  and  _397
REMARK  161  A    between atoms: _397  and  _398
REMARK  162  A    between atoms: _397  and  _400
REMARK  163  A    between atoms: _400  and  _401
REMARK  164  A    between atoms: _401  and  _402
REMARK  165  A    between atoms: _404  and  _406
REMARK  166  A    between atoms: _406  and  _407
REMARK  167  A    between atoms: _406  and  _409
REMARK  168  A    between atoms: _409  and  _410
REMARK  169  A    between atoms: _410  and  _411
REMARK  170  A    between atoms: _416  and  _418
REMARK  171  A    between atoms: _418  and  _419
REMARK  172  A    between atoms: _418  and  _421
REMARK  173  A    between atoms: _423  and  _425
REMARK  174  A    between atoms: _425  and  _426
REMARK  175  A    between atoms: _425  and  _428
REMARK  176  A    between atoms: _428  and  _429
REMARK  177  A    between atoms: _429  and  _430
REMARK  178  A    between atoms: _432  and  _434
REMARK  179  A    between atoms: _434  and  _435
REMARK  180  A    between atoms: _434  and  _437
REMARK  181  A    between atoms: _437  and  _438
REMARK  182  A    between atoms: _441  and  _443
REMARK  183  A    between atoms: _443  and  _444
REMARK  184  A    between atoms: _443  and  _446
REMARK  185  A    between atoms: _449  and  _451
REMARK  186  A    between atoms: _451  and  _452
REMARK  187  A    between atoms: _451  and  _454
REMARK  188  A    between atoms: _454  and  _455
REMARK  189  A    between atoms: _458  and  _460
REMARK  190  A    between atoms: _460  and  _461
REMARK  191  A    between atoms: _464  and  _466
REMARK  192  A    between atoms: _466  and  _467
REMARK  193  A    between atoms: _466  and  _469
REMARK  194  A    between atoms: _469  and  _470
REMARK  195  A    between atoms: _473  and  _475
REMARK  196  A    between atoms: _475  and  _476
REMARK  197  A    between atoms: _475  and  _478
REMARK  198  A    between atoms: _478  and  _479
REMARK  199  A    between atoms: _484  and  _486
REMARK  200  A    between atoms: _486  and  _487
REMARK  201  A    between atoms: _486  and  _489
REMARK  202  A    between atoms: _489  and  _490
REMARK  203  A    between atoms: _490  and  _491
REMARK  204  A    between atoms: _496  and  _498
REMARK  205  A    between atoms: _498  and  _499
REMARK  206  A    between atoms: _498  and  _501
REMARK  207  A    between atoms: _501  and  _502
REMARK  208  A    between atoms: _508  and  _510
REMARK  209  A    between atoms: _510  and  _511
REMARK  210  A    between atoms: _510  and  _513
REMARK  211  A    between atoms: _513  and  _514
REMARK  212  A    between atoms: _517  and  _519
REMARK  213  A    between atoms: _519  and  _520
REMARK  214  A    between atoms: _519  and  _522
REMARK  215  A    between atoms: _522  and  _523
REMARK  216  A    between atoms: _529  and  _531
REMARK  217  A    between atoms: _531  and  _532
REMARK  218  A    between atoms: _531  and  _534
REMARK  219  A    between atoms: _534  and  _535
REMARK  220  A    between atoms: _538  and  _540
REMARK  221  A    between atoms: _540  and  _541
REMARK  222  A    between atoms: _540  and  _543
REMARK  223  A    between atoms: _543  and  _544
REMARK  224  A    between atoms: _547  and  _549
REMARK  225  A    between atoms: _549  and  _550
REMARK  226  A    between atoms: _549  and  _552
REMARK  227  A    between atoms: _552  and  _553
REMARK  228  A    between atoms: _556  and  _558
REMARK  229  A    between atoms: _558  and  _559
REMARK  230  A    between atoms: _558  and  _561
REMARK  231  A    between atoms: _564  and  _566
REMARK  232  A    between atoms: _566  and  _567
REMARK  233  A    between atoms: _566  and  _569
REMARK  234  A    between atoms: _569  and  _570
REMARK  235  A    between atoms: _573  and  _575
REMARK  236  A    between atoms: _575  and  _576
REMARK  237  A    between atoms: _575  and  _578
REMARK  238  A    between atoms: _578  and  _579
REMARK  239  A    between atoms: _586  and  _587
REMARK  240  A    between atoms: _592  and  _594
REMARK  241  A    between atoms: _594  and  _595
REMARK  242  A    between atoms: _594  and  _597
REMARK  243  A    between atoms: _597  and  _598
REMARK  244  A    between atoms: _598  and  _599
REMARK  245  A    between atoms: _601  and  _603
REMARK  246  A    between atoms: _603  and  _604
REMARK  247  A    between atoms: _603  and  _606
REMARK  248  A    between atoms: _606  and  _607
REMARK  249  A    between atoms: _607  and  _608
REMARK  250  A    between atoms: _610  and  _612
REMARK  251  A    between atoms: _612  and  _613
REMARK  252  A    between atoms: _616  and  _618
REMARK  253  A    between atoms: _618  and  _619
REMARK  254  A    between atoms: _618  and  _621
REMARK  255  A    between atoms: _621  and  _622
REMARK  256  A    between atoms: _625  and  _627
REMARK  257  A    between atoms: _627  and  _628
REMARK  258  A    between atoms: _627  and  _630
REMARK  259  A    between atoms: _630  and  _631
REMARK  260  A    between atoms: _634  and  _636
REMARK  261  A    between atoms: _636  and  _637
REMARK  262  A    between atoms: _636  and  _639
REMARK  263  A    between atoms: _639  and  _640
REMARK  264  A    between atoms: _642  and  _644
REMARK  265  A    between atoms: _644  and  _645
REMARK  266  A    between atoms: _644  and  _647
REMARK  267  A    between atoms: _650  and  _652
REMARK  268  A    between atoms: _652  and  _653
REMARK  269  A    between atoms: _652  and  _655
REMARK  270  A    between atoms: _655  and  _656
REMARK  271  A    between atoms: _656  and  _657
REMARK  272  A    between atoms: _662  and  _664
REMARK  273  A    between atoms: _664  and  _665
REMARK  274  A    between atoms: _664  and  _667
REMARK  275  A    between atoms: _671  and  _672
REMARK  276  A    between atoms: _677  and  _679
REMARK  277  A    between atoms: _679  and  _680
REMARK  278  A    between atoms: _679  and  _682
REMARK  279  A    between atoms: _682  and  _683
REMARK  280  A    between atoms: _686  and  _688
REMARK  281  A    between atoms: _688  and  _689
REMARK  282  A    between atoms: _688  and  _691
REMARK  283  A    between atoms: _691  and  _692
REMARK                            x       y       z     vdW  Elec       q    Type
REMARK                         _______ _______ _______ _____ _____    ______ ____
ROOT
ATOM      1  CA  VAL A   4      35.201  -4.578  17.475  0.00  0.00    +0.149 C 
ENDROOT
BRANCH   1   4
ATOM      2  C   SER A   3      35.722  -5.775  15.429  0.00  0.00    +0.243 C 
ATOM      3  O   SER A   3      35.893  -6.821  16.048  0.00  0.00    -0.273 OA
ATOM      4  N   VAL A   4      35.380  -4.639  16.027  0.00  0.00    -0.297 N 
ATOM      5  H   VAL A   4      35.238  -3.781  15.456  0.00  0.00    +0.150 HD
BRANCH   2   6
ATOM      6  CA  SER A   3      35.899  -5.741  13.912  0.00  0.00    +0.178 C 
BRANCH   6   8
ATOM      7  C   ILE A   2      34.028  -4.531  12.920  0.00  0.00    +0.241 C 
ATOM      8  N   SER A   3      35.310  -4.568  13.272  0.00  0.00    -0.295 N 
ATOM      9  H   SER A   3      35.910  -3.739  13.086  0.00  0.00    +0.150 HD
ATOM     10  O   ILE A   2      33.254  -5.464  13.114  0.00  0.00    -0.273 OA
BRANCH   7  11
ATOM     11  CA  ILE A   2      33.548  -3.259  12.233  0.00  0.00    +0.148 C 
BRANCH  11  14
ATOM     12  C   ILE A   1      33.979  -1.654  14.016  0.00  0.00    +0.238 C 
ATOM     13  O   ILE A   1      33.249  -2.253  14.800  0.00  0.00    -0.274 OA
ATOM     14  N   ILE A   2      34.185  -2.062  12.767  0.00  0.00    -0.297 N 
ATOM     15  H   ILE A   2      34.819  -1.511  12.154  0.00  0.00    +0.150 HD
BRANCH  12  16
ATOM     16  CA  ILE A   1      34.708  -0.385  14.451  0.00  0.00    +0.145 C 
BRANCH  16  17
ATOM     17  N   ILE A   1      36.075  -0.335  13.962  0.00  0.00    -0.238 NA
ATOM     18  H   ILE A   1      36.356   0.423  13.308  0.00  0.00    +0.142 HD
ENDBRANCH  16  17
BRANCH  16  19
ATOM     19  CB  ILE A   1      33.929   0.861  13.987  0.00  0.00    +0.025 C 
ATOM     20  CG2 ILE A   1      32.438   0.699  14.276  0.00  0.00    +0.002 C 
BRANCH  19  21
ATOM     21  CG1 ILE A   1      34.502   2.099  14.688  0.00  0.00    +0.002 C 
ATOM     22  CD1 ILE A   1      33.913   3.420  14.210  0.00  0.00    +0.000 C 
ENDBRANCH  19  21
ENDBRANCH  16  19
ENDBRANCH  12  16
ENDBRANCH  11  14
BRANCH  11  23
ATOM     23  CB  ILE A   2      33.825  -3.415  10.724  0.00  0.00    +0.027 C 
ATOM     24  CG2 ILE A   2      33.250  -4.733  10.220  0.00  0.00    +0.002 C 
BRANCH  23  25
ATOM     25  CG1 ILE A   2      33.235  -2.232   9.958  0.00  0.00    +0.002 C 
ATOM     26  CD1 ILE A   2      33.558  -2.251   8.483  0.00  0.00    +0.000 C 
ENDBRANCH  23  25
ENDBRANCH  11  23
ENDBRANCH   7  11
ENDBRANCH   6   8
BRANCH   6  27
ATOM     27  CB  SER A   3      37.392  -5.824  13.587  0.00  0.00    +0.166 C 
BRANCH  27  28
ATOM     28  OG  SER A   3      38.112  -4.810  14.273  0.00  0.00    -0.380 OA
ATOM     29  H   SER A   3      37.773  -3.922  13.997  0.00  0.00    +0.211 HD
ENDBRANCH  27  28
ENDBRANCH   6  27
ENDBRANCH   2   6
ENDBRANCH   1   4
BRANCH   1  30
ATOM     30  C   VAL A   4      33.750  -4.405  17.907  0.00  0.00    +0.241 C 
ATOM     31  O   VAL A   4      33.278  -5.113  18.806  0.00  0.00    -0.273 OA
ATOM     32  N   GLN A   5      33.043  -3.475  17.265  0.00  0.00    -0.297 N 
ATOM     33  H   GLN A   5      33.490  -2.942  16.492  0.00  0.00    +0.150 HD
BRANCH  32  34
ATOM     34  CA  GLN A   5      31.655  -3.186  17.622  0.00  0.00    +0.149 C 
BRANCH  34  35
ATOM     35  C   GLN A   5      30.593  -3.991  16.881  0.00  0.00    +0.241 C 
ATOM     36  O   GLN A   5      29.703  -4.561  17.503  0.00  0.00    -0.273 OA
ATOM     37  N   VAL A   6      30.676  -4.037  15.556  0.00  0.00    -0.297 N 
ATOM     38  H   VAL A   6      31.449  -3.538  15.071  0.00  0.00    +0.150 HD
BRANCH  37  39
ATOM     39  CA  VAL A   6      29.694  -4.781  14.775  0.00  0.00    +0.149 C 
BRANCH  39  40
ATOM     40  C   VAL A   6      29.536  -6.238  15.223  0.00  0.00    +0.244 C 
ATOM     41  N   PRO A   7      30.645  -6.911  15.584  0.00  0.00    -0.273 N 
ATOM     42  CA  PRO A   7      30.537  -8.309  16.024  0.00  0.00    +0.140 C 
ATOM     43  CB  PRO A   7      31.992  -8.707  16.293  0.00  0.00    +0.030 C 
ATOM     44  CG  PRO A   7      32.772  -7.806  15.355  0.00  0.00    +0.024 C 
ATOM     45  CD  PRO A   7      32.060  -6.493  15.506  0.00  0.00    +0.094 C 
ATOM     46  O   VAL A   6      28.422  -6.764  15.242  0.00  0.00    -0.273 OA
BRANCH  42  47
ATOM     47  C   PRO A   7      29.656  -8.441  17.271  0.00  0.00    +0.227 C 
ATOM     48  O   PRO A   7      28.999  -9.462  17.467  0.00  0.00    -0.286 OA
ENDBRANCH  42  47
ENDBRANCH  39  40
BRANCH  39  49
ATOM     49  CB  VAL A   6      30.039  -4.738  13.278  0.00  0.00    +0.027 C 
ATOM     50  CG2 VAL A   6      29.959  -3.310  12.796  0.00  0.00    +0.002 C 
ATOM     51  CG1 VAL A   6      29.073  -5.613  12.482  0.00  0.00    +0.002 C 
ENDBRANCH  39  49
ENDBRANCH  37  39
ENDBRANCH  34  35
BRANCH  34  52
ATOM     52  CB  GLN A   5      31.375  -1.690  17.443  0.00  0.00    +0.039 C 
BRANCH  52  53
ATOM     53  CG  GLN A   5      32.296  -0.788  18.259  0.00  0.00    +0.087 C 
BRANCH  53  54
ATOM     54  CD  GLN A   5      32.002  -0.823  19.750  0.00  0.00    +0.219 C 
ATOM     55  NE2 GLN A   5      32.101   0.331  20.396  0.00  0.00    -0.329 N 
ATOM     56 HE21 GLN A   5      31.923   0.371  21.420  0.00  0.00    +0.145 HD
ATOM     57 HE22 GLN A   5      32.356   1.196  19.879  0.00  0.00    +0.145 HD
ATOM     58  OE1 GLN A   5      31.703  -1.874  20.316  0.00  0.00    -0.275 OA
ENDBRANCH  53  54
ENDBRANCH  52  53
ENDBRANCH  34  52
ENDBRANCH  32  34
ENDBRANCH   1  30
BRANCH   1  59
ATOM     59  CB  VAL A   4      36.029  -3.423  18.093  0.00  0.00    +0.027 C 
ATOM     60  CG2 VAL A   4      35.659  -3.231  19.568  0.00  0.00    +0.002 C 
ATOM     61  CG1 VAL A   4      37.510  -3.718  17.947  0.00  0.00    +0.002 C 
ENDBRANCH   1  59
TORSDOF 24
REMARK  Name = ../refined-set-2016/3b5r/3b5r_pocket.pdb
REMARK  283 active torsions:
REMARK  status: ('A' for Active; 'I' for Inactive)
REMARK    1  A    between atoms: _1  and  _3
REMARK    2  A    between atoms: _3  and  _4
REMARK    3  A    between atoms: _3  and  _6
REMARK    4  A    between atoms: _9  and  _11
REMARK    5  A    between atoms: _11  and  _12
REMARK    6  A    between atoms: _15  and  _17
REMARK    7  A    between atoms: _17  and  _18
REMARK    8  A    between atoms: _17  and  _20
REMARK    9  A    between atoms: _20  and  _21
REMARK   10  A    between atoms: _27  and  _29
REMARK   11  A    between atoms: _29  and  _30
REMARK   12  A    between atoms: _29  and  _32
REMARK   13  A    between atoms: _32  and  _33
REMARK   14  A    between atoms: _36  and  _38
REMARK   15  A    between atoms: _38  and  _39
REMARK   16  A    between atoms: _38  and  _41
REMARK   17  A    between atoms: _41  and  _42
REMARK   18  A    between atoms: _45  and  _47
REMARK   19  A    between atoms: _47  and  _48
REMARK   20  A    between atoms: _47  and  _50
REMARK   21  A    between atoms: _50  and  _51
REMARK   22  A    between atoms: _53  and  _55
REMARK   23  A    between atoms: _55  and  _56
REMARK   24  A    between atoms: _55  and  _58
REMARK   25  A    between atoms: _58  and  _59
REMARK   26  A    between atoms: _61  and  _63
REMARK   27  A    between atoms: _63  and  _64
REMARK   28  A    between atoms: _63  and  _66
REMARK   29  A    between atoms: _66  and  _67
REMARK   30  A    between atoms: _70  and  _72
REMARK   31  A    between atoms: _72  and  _73
REMARK   32  A    between atoms: _72  and  _75
REMARK   33  A    between atoms: _75  and  _76
REMARK   34  A    between atoms: _81  and  _83
REMARK   35  A    between atoms: _83  and  _84
REMARK   36  A    between atoms: _83  and  _86
REMARK   37  A    between atoms: _86  and  _87
REMARK   38  A    between atoms: _87  and  _88
REMARK   39  A    between atoms: _91  and  _93
REMARK   40  A    between atoms: _93  and  _94
REMARK   41  A    between atoms: _93  and  _96
REMARK   42  A    between atoms: _96  and  _97
REMARK   43  A    between atoms: _100  and  _102
REMARK   44  A    between atoms: _102  and  _103
REMARK   45  A    between atoms: _105  and  _107
REMARK   46  A    between atoms: _107  and  _108
REMARK   47  A    between atoms: _107  and  _110
REMARK   48  A    between atoms: _110  and  _111
REMARK   49  A    between atoms: _111  and  _112
REMARK   50  A    between atoms: _115  and  _117
REMARK   51  A    between atoms: _117  and  _118
REMARK   52  A    between atoms: _117  and  _120
REMARK   53  A    between atoms: _120  and  _121
REMARK   54  A    between atoms: _121  and  _122
REMARK   55  A    between atoms: _122  and  _123
REMARK   56  A    between atoms: _132  and  _134
REMARK   57  A    between atoms: _134  and  _135
REMARK   58  A    between atoms: _134  and  _137
REMARK   59  A    between atoms: _137  and  _138
REMARK   60  A    between atoms: _138  and  _139
REMARK   61  A    between atoms: _144  and  _146
REMARK   62  A    between atoms: _146  and  _147
REMARK   63  A    between atoms: _146  and  _149
REMARK   64  A    between atoms: _149  and  _150
REMARK   65  A    between atoms: _153  and  _155
REMARK   66  A    between atoms: _155  and  _156
REMARK   67  A    between atoms: _155  and  _158
REMARK   68  A    between atoms: _158  and  _159
REMARK   69  A    between atoms: _162  and  _164
REMARK   70  A    between atoms: _164  and  _165
REMARK   71  A    between atoms: _164  and  _167
REMARK   72  A    between atoms: _167  and  _168
REMARK   73  A    between atoms: _168  and  _169
REMARK   74  A    between atoms: _174  and  _176
REMARK   75  A    between atoms: _176  and  _177
REMARK   76  A    between atoms: _176  and  _179
REMARK   77  A    between atoms: _179  and  _180
REMARK   78  A    between atoms: _185  and  _186
REMARK   79  A    between atoms: _188  and  _190
REMARK   80  A    between atoms: _190  and  _191
REMARK   81  A    between atoms: _190  and  _193
REMARK   82  A    between atoms: _193  and  _194
REMARK   83  A    between atoms: _196  and  _198
REMARK   84  A    between atoms: _198  and  _199
REMARK   85  A    between atoms: _198  and  _201
REMARK   86  A    between atoms: _201  and  _202
REMARK   87  A    between atoms: _212  and  _214
REMARK   88  A    between atoms: _214  and  _215
REMARK   89  A    between atoms: _214  and  _217
REMARK   90  A    between atoms: _217  and  _218
REMARK   91  A    between atoms: _218  and  _219
REMARK   92  A    between atoms: _221  and  _223
REMARK   93  A    between atoms: _223  and  _224
REMARK   94  A    between atoms: _226  and  _228
REMARK   95  A    between atoms: _228  and  _229
REMARK   96  A    between atoms: _228  and  _231
REMARK   97  A    between atoms: _231  and  _232
REMARK   98  A    between atoms: _235  and  _237
REMARK   99  A    between atoms: _237  and  _238
REMARK  100  A    between atoms: _237  and  _240
REMARK  101  A    between atoms: _240  and  _241
REMARK  102  A    between atoms: _241  and  _242
REMARK  103  A    between atoms: _244  and  _246
REMARK  104  A    between atoms: _246  and  _247
REMARK  105  A    between atoms: _246  and  _249
REMARK  106  A    between atoms: _252  and  _254
REMARK  107  A    between atoms: _254  and  _255
REMARK  108  A    between atoms: _254  and  _257
REMARK  109  A    between atoms: _257  and  _258
REMARK  110  A    between atoms: _264  and  _266
REMARK  111  A    between atoms: _266  and  _267
REMARK  112  A    between atoms: _270  and  _272
REMARK  113  A    between atoms: _272  and  _273
REMARK  114  A    between atoms: _272  and  _275
REMARK  115  A    between atoms: _275  and  _276
REMARK  116  A    between atoms: _276  and  _277
REMARK  117  A    between atoms: _279  and  _281
REMARK  118  A    between atoms: _281  and  _282
REMARK  119  A    between atoms: _284  and  _286
REMARK  120  A    between atoms: _286  and  _287
REMARK  121  A    between atoms: _286  and  _289
REMARK  122  A    between atoms: _289  and  _290
REMARK  123  A    between atoms: _300  and  _302
REMARK  124  A    between atoms: _302  and  _303
REMARK  125  A    between atoms: _302  and  _305
REMARK  126  A    between atoms: _305  and  _306
REMARK  127  A    between atoms: _306  and  _307
REMARK  128  A    between atoms: _307  and  _308
REMARK  129  A    between atoms: _317  and  _319
REMARK  130  A    between atoms: _319  and  _320
REMARK  131  A    between atoms: _319  and  _322
REMARK  132  A    between atoms: _322  and  _323
REMARK  133  A    between atoms: _325  and  _327
REMARK  134  A    between atoms: _327  and  _328
REMARK  135  A    between atoms: _327  and  _330
REMARK  136  A    between atoms: _330  and  _331
REMARK  137  A    between atoms: _334  and  _336
REMARK  138  A    between atoms: _336  and  _337
REMARK  139  A    between atoms: _336  and  _339
REMARK  140  A    between atoms: _339  and  _340
REMARK  141  A    between atoms: _345  and  _346
REMARK  142  A    between atoms: _348  and  _350
REMARK  143  A    between atoms: _350  and  _351
REMARK  144  A    between atoms: _350  and  _353
REMARK  145  A    between atoms: _353  and  _354
REMARK  146  A    between atoms: _360  and  _362
REMARK  147  A    between atoms: _362  and  _363
REMARK  148  A    between atoms: _366  and  _368
REMARK  149  A    between atoms: _368  and  _369
REMARK  150  A    between atoms: _368  and  _371
REMARK  151  A    between atoms: _371  and  _372
REMARK  152  A    between atoms: _375  and  _377
REMARK  153  A    between atoms: _377  and  _378
REMARK  154  A    between atoms: _377  and  _380
REMARK  155  A    between atoms: _380  and  _381
REMARK  156  A    between atoms: _387  and  _389
REMARK  157  A    between atoms: _389  and  _390
REMARK  158  A    between atoms: _389  and  _392
REMARK  159  A    between atoms: _392  and  _393
REMARK  160  A    between atoms: _395  and  _397
REMARK  161  A    between atoms: _397  and  _398
REMARK  162  A    between atoms: _397  and  _400
REMARK  163  A    between atoms: _400  and  _401
REMARK  164  A    between atoms: _401  and  _402
REMARK  165  A    between atoms: _404  and  _406
REMARK  166  A    between atoms: _406  and  _407
REMARK  167  A    between atoms: _406  and  _409
REMARK  168  A    between atoms: _409  and  _410
REMARK  169  A    between atoms: _410  and  _411
REMARK  170  A    between atoms: _416  and  _418
REMARK  171  A    between atoms: _418  and  _419
REMARK  172  A    between atoms: _418  and  _421
REMARK  173  A    between atoms: _423  and  _425
REMARK  174  A    between atoms: _425  and  _426
REMARK  175  A    between atoms: _425  and  _428
REMARK  176  A    between atoms: _428  and  _429
REMARK  177  A    between atoms: _429  and  _430
REMARK  178  A    between atoms: _432  and  _434
REMARK  179  A    between atoms: _434  and  _435
REMARK  180  A    between atoms: _434  and  _437
REMARK  181  A    between atoms: _437  and  _438
REMARK  182  A    between atoms: _441  and  _443
REMARK  183  A    between atoms: _443  and  _444
REMARK  184  A    between atoms: _443  and  _446
REMARK  185  A    between atoms: _449  and  _451
REMARK  186  A    between atoms: _451  and  _452
REMARK  187  A    between atoms: _451  and  _454
REMARK  188  A    between atoms: _454  and  _455
REMARK  189  A    between atoms: _458  and  _460
REMARK  190  A    between atoms: _460  and  _461
REMARK  191  A    between atoms: _464  and  _466
REMARK  192  A    between atoms: _466  and  _467
REMARK  193  A    between atoms: _466  and  _469
REMARK  194  A    between atoms: _469  and  _470
REMARK  195  A    between atoms: _473  and  _475
REMARK  196  A    between atoms: _475  and  _476
REMARK  197  A    between atoms: _475  and  _478
REMARK  198  A    between atoms: _478  and  _479
REMARK  199  A    between atoms: _484  and  _486
REMARK  200  A    between atoms: _486  and  _487
REMARK  201  A    between atoms: _486  and  _489
REMARK  202  A    between atoms: _489  and  _490
REMARK  203  A    between atoms: _490  and  _491
REMARK  204  A    between atoms: _496  and  _498
REMARK  205  A    between atoms: _498  and  _499
REMARK  206  A    between atoms: _498  and  _501
REMARK  207  A    between atoms: _501  and  _502
REMARK  208  A    between atoms: _508  and  _510
REMARK  209  A    between atoms: _510  and  _511
REMARK  210  A    between atoms: _510  and  _513
REMARK  211  A    between atoms: _513  and  _514
REMARK  212  A    between atoms: _517  and  _519
REMARK  213  A    between atoms: _519  and  _520
REMARK  214  A    between atoms: _519  and  _522
REMARK  215  A    between atoms: _522  and  _523
REMARK  216  A    between atoms: _529  and  _531
REMARK  217  A    between atoms: _531  and  _532
REMARK  218  A    between atoms: _531  and  _534
REMARK  219  A    between atoms: _534  and  _535
REMARK  220  A    between atoms: _538  and  _540
REMARK  221  A    between atoms: _540  and  _541
REMARK  222  A    between atoms: _540  and  _543
REMARK  223  A    between atoms: _543  and  _544
REMARK  224  A    between atoms: _547  and  _549
REMARK  225  A    between atoms: _549  and  _550
REMARK  226  A    between atoms: _549  and  _552
REMARK  227  A    between atoms: _552  and  _553
REMARK  228  A    between atoms: _556  and  _558
REMARK  229  A    between atoms: _558  and  _559
REMARK  230  A    between atoms: _558  and  _561
REMARK  231  A    between atoms: _564  and  _566
REMARK  232  A    between atoms: _566  and  _567
REMARK  233  A    between atoms: _566  and  _569
REMARK  234  A    between atoms: _569  and  _570
REMARK  235  A    between atoms: _573  and  _575
REMARK  236  A    between atoms: _575  and  _576
REMARK  237  A    between atoms: _575  and  _578
REMARK  238  A    between atoms: _578  and  _579
REMARK  239  A    between atoms: _586  and  _587
REMARK  240  A    between atoms: _592  and  _594
REMARK  241  A    between atoms: _594  and  _595
REMARK  242  A    between atoms: _594  and  _597
REMARK  243  A    between atoms: _597  and  _598
REMARK  244  A    between atoms: _598  and  _599
REMARK  245  A    between atoms: _601  and  _603
REMARK  246  A    between atoms: _603  and  _604
REMARK  247  A    between atoms: _603  and  _606
REMARK  248  A    between atoms: _606  and  _607
REMARK  249  A    between atoms: _607  and  _608
REMARK  250  A    between atoms: _610  and  _612
REMARK  251  A    between atoms: _612  and  _613
REMARK  252  A    between atoms: _616  and  _618
REMARK  253  A    between atoms: _618  and  _619
REMARK  254  A    between atoms: _618  and  _621
REMARK  255  A    between atoms: _621  and  _622
REMARK  256  A    between atoms: _625  and  _627
REMARK  257  A    between atoms: _627  and  _628
REMARK  258  A    between atoms: _627  and  _630
REMARK  259  A    between atoms: _630  and  _631
REMARK  260  A    between atoms: _634  and  _636
REMARK  261  A    between atoms: _636  and  _637
REMARK  262  A    between atoms: _636  and  _639
REMARK  263  A    between atoms: _639  and  _640
REMARK  264  A    between atoms: _642  and  _644
REMARK  265  A    between atoms: _644  and  _645
REMARK  266  A    between atoms: _644  and  _647
REMARK  267  A    between atoms: _650  and  _652
REMARK  268  A    between atoms: _652  and  _653
REMARK  269  A    between atoms: _652  and  _655
REMARK  270  A    between atoms: _655  and  _656
REMARK  271  A    between atoms: _656  and  _657
REMARK  272  A    between atoms: _662  and  _664
REMARK  273  A    between atoms: _664  and  _665
REMARK  274  A    between atoms: _664  and  _667
REMARK  275  A    between atoms: _671  and  _672
REMARK  276  A    between atoms: _677  and  _679
REMARK  277  A    between atoms: _679  and  _680
REMARK  278  A    between atoms: _679  and  _682
REMARK  279  A    between atoms: _682  and  _683
REMARK  280  A    between atoms: _686  and  _688
REMARK  281  A    between atoms: _688  and  _689
REMARK  282  A    between atoms: _688  and  _691
REMARK  283  A    between atoms: _691  and  _692
REMARK                            x       y       z     vdW  Elec       q    Type
REMARK                         _______ _______ _______ _____ _____    ______ ____
ROOT
ATOM      1  C   ILE A   1      25.181  -7.874  16.757  0.00  0.00    +0.238 C 
ATOM      2  O   ILE A   1      24.106  -8.387  17.052  0.00  0.00    -0.274 OA
ATOM      3  N   LEU A   2      26.010  -8.397  15.857  0.00  0.00    -0.298 N 
ATOM      4  H   LEU A   2      26.911  -7.917  15.658  0.00  0.00    +0.150 HD
ENDROOT
BRANCH   1   5
ATOM      5  CA  ILE A   1      25.628  -6.573  17.417  0.00  0.00    +0.145 C 
BRANCH   5   6
ATOM      6  N   ILE A   1      27.015  -6.672  17.873  0.00  0.00    -0.238 NA
ATOM      7  H   ILE A   1      27.761  -6.180  17.341  0.00  0.00    +0.142 HD
ENDBRANCH   5   6
BRANCH   5   8
ATOM      8  CB  ILE A   1      25.435  -5.440  16.373  0.00  0.00    +0.025 C 
ATOM      9  CG2 ILE A   1      24.049  -5.555  15.729  0.00  0.00    +0.002 C 
BRANCH   8  10
ATOM     10  CG1 ILE A   1      25.593  -4.068  17.034  0.00  0.00    +0.002 C 
ATOM     11  CD1 ILE A   1      25.634  -2.909  16.049  0.00  0.00    +0.000 C 
ENDBRANCH   8  10
ENDBRANCH   5   8
ENDBRANCH   1   5
BRANCH   3  12
ATOM     12  CA  LEU A   2      25.688  -9.625  15.143  0.00  0.00    +0.137 C 
BRANCH  12  13
ATOM     13  C   LEU A   2      25.622 -10.840  16.069  0.00  0.00    +0.227 C 
ATOM     14  O   LEU A   2      24.862 -11.774  15.811  0.00  0.00    -0.286 OA
ENDBRANCH  12  13
BRANCH  12  15
ATOM     15  CB  LEU A   2      26.712  -9.869  14.023  0.00  0.00    +0.028 C 
BRANCH  15  16
ATOM     16  CG  LEU A   2      26.788  -8.796  12.923  0.00  0.00    +0.002 C 
ATOM     17  CD2 LEU A   2      25.468  -8.765  12.147  0.00  0.00    +0.000 C 
ATOM     18  CD1 LEU A   2      27.958  -9.075  11.989  0.00  0.00    +0.000 C 
ENDBRANCH  15  16
ENDBRANCH  12  15
ENDBRANCH   3  12
TORSDOF 8
REMARK  Name = ../refined-set-2016/3b5r/3b5r_pocket.pdb
REMARK  283 active torsions:
REMARK  status: ('A' for Active; 'I' for Inactive)
REMARK    1  A    between atoms: _1  and  _3
REMARK    2  A    between atoms: _3  and  _4
REMARK    3  A    between atoms: _3  and  _6
REMARK    4  A    between atoms: _9  and  _11
REMARK    5  A    between atoms: _11  and  _12
REMARK    6  A    between atoms: _15  and  _17
REMARK    7  A    between atoms: _17  and  _18
REMARK    8  A    between atoms: _17  and  _20
REMARK    9  A    between atoms: _20  and  _21
REMARK   10  A    between atoms: _27  and  _29
REMARK   11  A    between atoms: _29  and  _30
REMARK   12  A    between atoms: _29  and  _32
REMARK   13  A    between atoms: _32  and  _33
REMARK   14  A    between atoms: _36  and  _38
REMARK   15  A    between atoms: _38  and  _39
REMARK   16  A    between atoms: _38  and  _41
REMARK   17  A    between atoms: _41  and  _42
REMARK   18  A    between atoms: _45  and  _47
REMARK   19  A    between atoms: _47  and  _48
REMARK   20  A    between atoms: _47  and  _50
REMARK   21  A    between atoms: _50  and  _51
REMARK   22  A    between atoms: _53  and  _55
REMARK   23  A    between atoms: _55  and  _56
REMARK   24  A    between atoms: _55  and  _58
REMARK   25  A    between atoms: _58  and  _59
REMARK   26  A    between atoms: _61  and  _63
REMARK   27  A    between atoms: _63  and  _64
REMARK   28  A    between atoms: _63  and  _66
REMARK   29  A    between atoms: _66  and  _67
REMARK   30  A    between atoms: _70  and  _72
REMARK   31  A    between atoms: _72  and  _73
REMARK   32  A    between atoms: _72  and  _75
REMARK   33  A    between atoms: _75  and  _76
REMARK   34  A    between atoms: _81  and  _83
REMARK   35  A    between atoms: _83  and  _84
REMARK   36  A    between atoms: _83  and  _86
REMARK   37  A    between atoms: _86  and  _87
REMARK   38  A    between atoms: _87  and  _88
REMARK   39  A    between atoms: _91  and  _93
REMARK   40  A    between atoms: _93  and  _94
REMARK   41  A    between atoms: _93  and  _96
REMARK   42  A    between atoms: _96  and  _97
REMARK   43  A    between atoms: _100  and  _102
REMARK   44  A    between atoms: _102  and  _103
REMARK   45  A    between atoms: _105  and  _107
REMARK   46  A    between atoms: _107  and  _108
REMARK   47  A    between atoms: _107  and  _110
REMARK   48  A    between atoms: _110  and  _111
REMARK   49  A    between atoms: _111  and  _112
REMARK   50  A    between atoms: _115  and  _117
REMARK   51  A    between atoms: _117  and  _118
REMARK   52  A    between atoms: _117  and  _120
REMARK   53  A    between atoms: _120  and  _121
REMARK   54  A    between atoms: _121  and  _122
REMARK   55  A    between atoms: _122  and  _123
REMARK   56  A    between atoms: _132  and  _134
REMARK   57  A    between atoms: _134  and  _135
REMARK   58  A    between atoms: _134  and  _137
REMARK   59  A    between atoms: _137  and  _138
REMARK   60  A    between atoms: _138  and  _139
REMARK   61  A    between atoms: _144  and  _146
REMARK   62  A    between atoms: _146  and  _147
REMARK   63  A    between atoms: _146  and  _149
REMARK   64  A    between atoms: _149  and  _150
REMARK   65  A    between atoms: _153  and  _155
REMARK   66  A    between atoms: _155  and  _156
REMARK   67  A    between atoms: _155  and  _158
REMARK   68  A    between atoms: _158  and  _159
REMARK   69  A    between atoms: _162  and  _164
REMARK   70  A    between atoms: _164  and  _165
REMARK   71  A    between atoms: _164  and  _167
REMARK   72  A    between atoms: _167  and  _168
REMARK   73  A    between atoms: _168  and  _169
REMARK   74  A    between atoms: _174  and  _176
REMARK   75  A    between atoms: _176  and  _177
REMARK   76  A    between atoms: _176  and  _179
REMARK   77  A    between atoms: _179  and  _180
REMARK   78  A    between atoms: _185  and  _186
REMARK   79  A    between atoms: _188  and  _190
REMARK   80  A    between atoms: _190  and  _191
REMARK   81  A    between atoms: _190  and  _193
REMARK   82  A    between atoms: _193  and  _194
REMARK   83  A    between atoms: _196  and  _198
REMARK   84  A    between atoms: _198  and  _199
REMARK   85  A    between atoms: _198  and  _201
REMARK   86  A    between atoms: _201  and  _202
REMARK   87  A    between atoms: _212  and  _214
REMARK   88  A    between atoms: _214  and  _215
REMARK   89  A    between atoms: _214  and  _217
REMARK   90  A    between atoms: _217  and  _218
REMARK   91  A    between atoms: _218  and  _219
REMARK   92  A    between atoms: _221  and  _223
REMARK   93  A    between atoms: _223  and  _224
REMARK   94  A    between atoms: _226  and  _228
REMARK   95  A    between atoms: _228  and  _229
REMARK   96  A    between atoms: _228  and  _231
REMARK   97  A    between atoms: _231  and  _232
REMARK   98  A    between atoms: _235  and  _237
REMARK   99  A    between atoms: _237  and  _238
REMARK  100  A    between atoms: _237  and  _240
REMARK  101  A    between atoms: _240  and  _241
REMARK  102  A    between atoms: _241  and  _242
REMARK  103  A    between atoms: _244  and  _246
REMARK  104  A    between atoms: _246  and  _247
REMARK  105  A    between atoms: _246  and  _249
REMARK  106  A    between atoms: _252  and  _254
REMARK  107  A    between atoms: _254  and  _255
REMARK  108  A    between atoms: _254  and  _257
REMARK  109  A    between atoms: _257  and  _258
REMARK  110  A    between atoms: _264  and  _266
REMARK  111  A    between atoms: _266  and  _267
REMARK  112  A    between atoms: _270  and  _272
REMARK  113  A    between atoms: _272  and  _273
REMARK  114  A    between atoms: _272  and  _275
REMARK  115  A    between atoms: _275  and  _276
REMARK  116  A    between atoms: _276  and  _277
REMARK  117  A    between atoms: _279  and  _281
REMARK  118  A    between atoms: _281  and  _282
REMARK  119  A    between atoms: _284  and  _286
REMARK  120  A    between atoms: _286  and  _287
REMARK  121  A    between atoms: _286  and  _289
REMARK  122  A    between atoms: _289  and  _290
REMARK  123  A    between atoms: _300  and  _302
REMARK  124  A    between atoms: _302  and  _303
REMARK  125  A    between atoms: _302  and  _305
REMARK  126  A    between atoms: _305  and  _306
REMARK  127  A    between atoms: _306  and  _307
REMARK  128  A    between atoms: _307  and  _308
REMARK  129  A    between atoms: _317  and  _319
REMARK  130  A    between atoms: _319  and  _320
REMARK  131  A    between atoms: _319  and  _322
REMARK  132  A    between atoms: _322  and  _323
REMARK  133  A    between atoms: _325  and  _327
REMARK  134  A    between atoms: _327  and  _328
REMARK  135  A    between atoms: _327  and  _330
REMARK  136  A    between atoms: _330  and  _331
REMARK  137  A    between atoms: _334  and  _336
REMARK  138  A    between atoms: _336  and  _337
REMARK  139  A    between atoms: _336  and  _339
REMARK  140  A    between atoms: _339  and  _340
REMARK  141  A    between atoms: _345  and  _346
REMARK  142  A    between atoms: _348  and  _350
REMARK  143  A    between atoms: _350  and  _351
REMARK  144  A    between atoms: _350  and  _353
REMARK  145  A    between atoms: _353  and  _354
REMARK  146  A    between atoms: _360  and  _362
REMARK  147  A    between atoms: _362  and  _363
REMARK  148  A    between atoms: _366  and  _368
REMARK  149  A    between atoms: _368  and  _369
REMARK  150  A    between atoms: _368  and  _371
REMARK  151  A    between atoms: _371  and  _372
REMARK  152  A    between atoms: _375  and  _377
REMARK  153  A    between atoms: _377  and  _378
REMARK  154  A    between atoms: _377  and  _380
REMARK  155  A    between atoms: _380  and  _381
REMARK  156  A    between atoms: _387  and  _389
REMARK  157  A    between atoms: _389  and  _390
REMARK  158  A    between atoms: _389  and  _392
REMARK  159  A    between atoms: _392  and  _393
REMARK  160  A    between atoms: _395  and  _397
REMARK  161  A    between atoms: _397  and  _398
REMARK  162  A    between atoms: _397  and  _400
REMARK  163  A    between atoms: _400  and  _401
REMARK  164  A    between atoms: _401  and  _402
REMARK  165  A    between atoms: _404  and  _406
REMARK  166  A    between atoms: _406  and  _407
REMARK  167  A    between atoms: _406  and  _409
REMARK  168  A    between atoms: _409  and  _410
REMARK  169  A    between atoms: _410  and  _411
REMARK  170  A    between atoms: _416  and  _418
REMARK  171  A    between atoms: _418  and  _419
REMARK  172  A    between atoms: _418  and  _421
REMARK  173  A    between atoms: _423  and  _425
REMARK  174  A    between atoms: _425  and  _426
REMARK  175  A    between atoms: _425  and  _428
REMARK  176  A    between atoms: _428  and  _429
REMARK  177  A    between atoms: _429  and  _430
REMARK  178  A    between atoms: _432  and  _434
REMARK  179  A    between atoms: _434  and  _435
REMARK  180  A    between atoms: _434  and  _437
REMARK  181  A    between atoms: _437  and  _438
REMARK  182  A    between atoms: _441  and  _443
REMARK  183  A    between atoms: _443  and  _444
REMARK  184  A    between atoms: _443  and  _446
REMARK  185  A    between atoms: _449  and  _451
REMARK  186  A    between atoms: _451  and  _452
REMARK  187  A    between atoms: _451  and  _454
REMARK  188  A    between atoms: _454  and  _455
REMARK  189  A    between atoms: _458  and  _460
REMARK  190  A    between atoms: _460  and  _461
REMARK  191  A    between atoms: _464  and  _466
REMARK  192  A    between atoms: _466  and  _467
REMARK  193  A    between atoms: _466  and  _469
REMARK  194  A    between atoms: _469  and  _470
REMARK  195  A    between atoms: _473  and  _475
REMARK  196  A    between atoms: _475  and  _476
REMARK  197  A    between atoms: _475  and  _478
REMARK  198  A    between atoms: _478  and  _479
REMARK  199  A    between atoms: _484  and  _486
REMARK  200  A    between atoms: _486  and  _487
REMARK  201  A    between atoms: _486  and  _489
REMARK  202  A    between atoms: _489  and  _490
REMARK  203  A    between atoms: _490  and  _491
REMARK  204  A    between atoms: _496  and  _498
REMARK  205  A    between atoms: _498  and  _499
REMARK  206  A    between atoms: _498  and  _501
REMARK  207  A    between atoms: _501  and  _502
REMARK  208  A    between atoms: _508  and  _510
REMARK  209  A    between atoms: _510  and  _511
REMARK  210  A    between atoms: _510  and  _513
REMARK  211  A    between atoms: _513  and  _514
REMARK  212  A    between atoms: _517  and  _519
REMARK  213  A    between atoms: _519  and  _520
REMARK  214  A    between atoms: _519  and  _522
REMARK  215  A    between atoms: _522  and  _523
REMARK  216  A    between atoms: _529  and  _531
REMARK  217  A    between atoms: _531  and  _532
REMARK  218  A    between atoms: _531  and  _534
REMARK  219  A    between atoms: _534  and  _535
REMARK  220  A    between atoms: _538  and  _540
REMARK  221  A    between atoms: _540  and  _541
REMARK  222  A    between atoms: _540  and  _543
REMARK  223  A    between atoms: _543  and  _544
REMARK  224  A    between atoms: _547  and  _549
REMARK  225  A    between atoms: _549  and  _550
REMARK  226  A    between atoms: _549  and  _552
REMARK  227  A    between atoms: _552  and  _553
REMARK  228  A    between atoms: _556  and  _558
REMARK  229  A    between atoms: _558  and  _559
REMARK  230  A    between atoms: _558  and  _561
REMARK  231  A    between atoms: _564  and  _566
REMARK  232  A    between atoms: _566  and  _567
REMARK  233  A    between atoms: _566  and  _569
REMARK  234  A    between atoms: _569  and  _570
REMARK  235  A    between atoms: _573  and  _575
REMARK  236  A    between atoms: _575  and  _576
REMARK  237  A    between atoms: _575  and  _578
REMARK  238  A    between atoms: _578  and  _579
REMARK  239  A    between atoms: _586  and  _587
REMARK  240  A    between atoms: _592  and  _594
REMARK  241  A    between atoms: _594  and  _595
REMARK  242  A    between atoms: _594  and  _597
REMARK  243  A    between atoms: _597  and  _598
REMARK  244  A    between atoms: _598  and  _599
REMARK  245  A    between atoms: _601  and  _603
REMARK  246  A    between atoms: _603  and  _604
REMARK  247  A    between atoms: _603  and  _606
REMARK  248  A    between atoms: _606  and  _607
REMARK  249  A    between atoms: _607  and  _608
REMARK  250  A    between atoms: _610  and  _612
REMARK  251  A    between atoms: _612  and  _613
REMARK  252  A    between atoms: _616  and  _618
REMARK  253  A    between atoms: _618  and  _619
REMARK  254  A    between atoms: _618  and  _621
REMARK  255  A    between atoms: _621  and  _622
REMARK  256  A    between atoms: _625  and  _627
REMARK  257  A    between atoms: _627  and  _628
REMARK  258  A    between atoms: _627  and  _630
REMARK  259  A    between atoms: _630  and  _631
REMARK  260  A    between atoms: _634  and  _636
REMARK  261  A    between atoms: _636  and  _637
REMARK  262  A    between atoms: _636  and  _639
REMARK  263  A    between atoms: _639  and  _640
REMARK  264  A    between atoms: _642  and  _644
REMARK  265  A    between atoms: _644  and  _645
REMARK  266  A    between atoms: _644  and  _647
REMARK  267  A    between atoms: _650  and  _652
REMARK  268  A    between atoms: _652  and  _653
REMARK  269  A    between atoms: _652  and  _655
REMARK  270  A    between atoms: _655  and  _656
REMARK  271  A    between atoms: _656  and  _657
REMARK  272  A    between atoms: _662  and  _664
REMARK  273  A    between atoms: _664  and  _665
REMARK  274  A    between atoms: _664  and  _667
REMARK  275  A    between atoms: _671  and  _672
REMARK  276  A    between atoms: _677  and  _679
REMARK  277  A    between atoms: _679  and  _680
REMARK  278  A    between atoms: _679  and  _682
REMARK  279  A    between atoms: _682  and  _683
REMARK  280  A    between atoms: _686  and  _688
REMARK  281  A    between atoms: _688  and  _689
REMARK  282  A    between atoms: _688  and  _691
REMARK  283  A    between atoms: _691  and  _692
REMARK                            x       y       z     vdW  Elec       q    Type
REMARK                         _______ _______ _______ _____ _____    ______ ____
ROOT
ATOM      1  O   HOH     1      26.482   1.035  13.278  0.00  0.00    +0.000 OA
ENDROOT
TORSDOF 0
REMARK  Name = ../refined-set-2016/3b5r/3b5r_pocket.pdb
REMARK  283 active torsions:
REMARK  status: ('A' for Active; 'I' for Inactive)
REMARK    1  A    between atoms: _1  and  _3
REMARK    2  A    between atoms: _3  and  _4
REMARK    3  A    between atoms: _3  and  _6
REMARK    4  A    between atoms: _9  and  _11
REMARK    5  A    between atoms: _11  and  _12
REMARK    6  A    between atoms: _15  and  _17
REMARK    7  A    between atoms: _17  and  _18
REMARK    8  A    between atoms: _17  and  _20
REMARK    9  A    between atoms: _20  and  _21
REMARK   10  A    between atoms: _27  and  _29
REMARK   11  A    between atoms: _29  and  _30
REMARK   12  A    between atoms: _29  and  _32
REMARK   13  A    between atoms: _32  and  _33
REMARK   14  A    between atoms: _36  and  _38
REMARK   15  A    between atoms: _38  and  _39
REMARK   16  A    between atoms: _38  and  _41
REMARK   17  A    between atoms: _41  and  _42
REMARK   18  A    between atoms: _45  and  _47
REMARK   19  A    between atoms: _47  and  _48
REMARK   20  A    between atoms: _47  and  _50
REMARK   21  A    between atoms: _50  and  _51
REMARK   22  A    between atoms: _53  and  _55
REMARK   23  A    between atoms: _55  and  _56
REMARK   24  A    between atoms: _55  and  _58
REMARK   25  A    between atoms: _58  and  _59
REMARK   26  A    between atoms: _61  and  _63
REMARK   27  A    between atoms: _63  and  _64
REMARK   28  A    between atoms: _63  and  _66
REMARK   29  A    between atoms: _66  and  _67
REMARK   30  A    between atoms: _70  and  _72
REMARK   31  A    between atoms: _72  and  _73
REMARK   32  A    between atoms: _72  and  _75
REMARK   33  A    between atoms: _75  and  _76
REMARK   34  A    between atoms: _81  and  _83
REMARK   35  A    between atoms: _83  and  _84
REMARK   36  A    between atoms: _83  and  _86
REMARK   37  A    between atoms: _86  and  _87
REMARK   38  A    between atoms: _87  and  _88
REMARK   39  A    between atoms: _91  and  _93
REMARK   40  A    between atoms: _93  and  _94
REMARK   41  A    between atoms: _93  and  _96
REMARK   42  A    between atoms: _96  and  _97
REMARK   43  A    between atoms: _100  and  _102
REMARK   44  A    between atoms: _102  and  _103
REMARK   45  A    between atoms: _105  and  _107
REMARK   46  A    between atoms: _107  and  _108
REMARK   47  A    between atoms: _107  and  _110
REMARK   48  A    between atoms: _110  and  _111
REMARK   49  A    between atoms: _111  and  _112
REMARK   50  A    between atoms: _115  and  _117
REMARK   51  A    between atoms: _117  and  _118
REMARK   52  A    between atoms: _117  and  _120
REMARK   53  A    between atoms: _120  and  _121
REMARK   54  A    between atoms: _121  and  _122
REMARK   55  A    between atoms: _122  and  _123
REMARK   56  A    between atoms: _132  and  _134
REMARK   57  A    between atoms: _134  and  _135
REMARK   58  A    between atoms: _134  and  _137
REMARK   59  A    between atoms: _137  and  _138
REMARK   60  A    between atoms: _138  and  _139
REMARK   61  A    between atoms: _144  and  _146
REMARK   62  A    between atoms: _146  and  _147
REMARK   63  A    between atoms: _146  and  _149
REMARK   64  A    between atoms: _149  and  _150
REMARK   65  A    between atoms: _153  and  _155
REMARK   66  A    between atoms: _155  and  _156
REMARK   67  A    between atoms: _155  and  _158
REMARK   68  A    between atoms: _158  and  _159
REMARK   69  A    between atoms: _162  and  _164
REMARK   70  A    between atoms: _164  and  _165
REMARK   71  A    between atoms: _164  and  _167
REMARK   72  A    between atoms: _167  and  _168
REMARK   73  A    between atoms: _168  and  _169
REMARK   74  A    between atoms: _174  and  _176
REMARK   75  A    between atoms: _176  and  _177
REMARK   76  A    between atoms: _176  and  _179
REMARK   77  A    between atoms: _179  and  _180
REMARK   78  A    between atoms: _185  and  _186
REMARK   79  A    between atoms: _188  and  _190
REMARK   80  A    between atoms: _190  and  _191
REMARK   81  A    between atoms: _190  and  _193
REMARK   82  A    between atoms: _193  and  _194
REMARK   83  A    between atoms: _196  and  _198
REMARK   84  A    between atoms: _198  and  _199
REMARK   85  A    between atoms: _198  and  _201
REMARK   86  A    between atoms: _201  and  _202
REMARK   87  A    between atoms: _212  and  _214
REMARK   88  A    between atoms: _214  and  _215
REMARK   89  A    between atoms: _214  and  _217
REMARK   90  A    between atoms: _217  and  _218
REMARK   91  A    between atoms: _218  and  _219
REMARK   92  A    between atoms: _221  and  _223
REMARK   93  A    between atoms: _223  and  _224
REMARK   94  A    between atoms: _226  and  _228
REMARK   95  A    between atoms: _228  and  _229
REMARK   96  A    between atoms: _228  and  _231
REMARK   97  A    between atoms: _231  and  _232
REMARK   98  A    between atoms: _235  and  _237
REMARK   99  A    between atoms: _237  and  _238
REMARK  100  A    between atoms: _237  and  _240
REMARK  101  A    between atoms: _240  and  _241
REMARK  102  A    between atoms: _241  and  _242
REMARK  103  A    between atoms: _244  and  _246
REMARK  104  A    between atoms: _246  and  _247
REMARK  105  A    between atoms: _246  and  _249
REMARK  106  A    between atoms: _252  and  _254
REMARK  107  A    between atoms: _254  and  _255
REMARK  108  A    between atoms: _254  and  _257
REMARK  109  A    between atoms: _257  and  _258
REMARK  110  A    between atoms: _264  and  _266
REMARK  111  A    between atoms: _266  and  _267
REMARK  112  A    between atoms: _270  and  _272
REMARK  113  A    between atoms: _272  and  _273
REMARK  114  A    between atoms: _272  and  _275
REMARK  115  A    between atoms: _275  and  _276
REMARK  116  A    between atoms: _276  and  _277
REMARK  117  A    between atoms: _279  and  _281
REMARK  118  A    between atoms: _281  and  _282
REMARK  119  A    between atoms: _284  and  _286
REMARK  120  A    between atoms: _286  and  _287
REMARK  121  A    between atoms: _286  and  _289
REMARK  122  A    between atoms: _289  and  _290
REMARK  123  A    between atoms: _300  and  _302
REMARK  124  A    between atoms: _302  and  _303
REMARK  125  A    between atoms: _302  and  _305
REMARK  126  A    between atoms: _305  and  _306
REMARK  127  A    between atoms: _306  and  _307
REMARK  128  A    between atoms: _307  and  _308
REMARK  129  A    between atoms: _317  and  _319
REMARK  130  A    between atoms: _319  and  _320
REMARK  131  A    between atoms: _319  and  _322
REMARK  132  A    between atoms: _322  and  _323
REMARK  133  A    between atoms: _325  and  _327
REMARK  134  A    between atoms: _327  and  _328
REMARK  135  A    between atoms: _327  and  _330
REMARK  136  A    between atoms: _330  and  _331
REMARK  137  A    between atoms: _334  and  _336
REMARK  138  A    between atoms: _336  and  _337
REMARK  139  A    between atoms: _336  and  _339
REMARK  140  A    between atoms: _339  and  _340
REMARK  141  A    between atoms: _345  and  _346
REMARK  142  A    between atoms: _348  and  _350
REMARK  143  A    between atoms: _350  and  _351
REMARK  144  A    between atoms: _350  and  _353
REMARK  145  A    between atoms: _353  and  _354
REMARK  146  A    between atoms: _360  and  _362
REMARK  147  A    between atoms: _362  and  _363
REMARK  148  A    between atoms: _366  and  _368
REMARK  149  A    between atoms: _368  and  _369
REMARK  150  A    between atoms: _368  and  _371
REMARK  151  A    between atoms: _371  and  _372
REMARK  152  A    between atoms: _375  and  _377
REMARK  153  A    between atoms: _377  and  _378
REMARK  154  A    between atoms: _377  and  _380
REMARK  155  A    between atoms: _380  and  _381
REMARK  156  A    between atoms: _387  and  _389
REMARK  157  A    between atoms: _389  and  _390
REMARK  158  A    between atoms: _389  and  _392
REMARK  159  A    between atoms: _392  and  _393
REMARK  160  A    between atoms: _395  and  _397
REMARK  161  A    between atoms: _397  and  _398
REMARK  162  A    between atoms: _397  and  _400
REMARK  163  A    between atoms: _400  and  _401
REMARK  164  A    between atoms: _401  and  _402
REMARK  165  A    between atoms: _404  and  _406
REMARK  166  A    between atoms: _406  and  _407
REMARK  167  A    between atoms: _406  and  _409
REMARK  168  A    between atoms: _409  and  _410
REMARK  169  A    between atoms: _410  and  _411
REMARK  170  A    between atoms: _416  and  _418
REMARK  171  A    between atoms: _418  and  _419
REMARK  172  A    between atoms: _418  and  _421
REMARK  173  A    between atoms: _423  and  _425
REMARK  174  A    between atoms: _425  and  _426
REMARK  175  A    between atoms: _425  and  _428
REMARK  176  A    between atoms: _428  and  _429
REMARK  177  A    between atoms: _429  and  _430
REMARK  178  A    between atoms: _432  and  _434
REMARK  179  A    between atoms: _434  and  _435
REMARK  180  A    between atoms: _434  and  _437
REMARK  181  A    between atoms: _437  and  _438
REMARK  182  A    between atoms: _441  and  _443
REMARK  183  A    between atoms: _443  and  _444
REMARK  184  A    between atoms: _443  and  _446
REMARK  185  A    between atoms: _449  and  _451
REMARK  186  A    between atoms: _451  and  _452
REMARK  187  A    between atoms: _451  and  _454
REMARK  188  A    between atoms: _454  and  _455
REMARK  189  A    between atoms: _458  and  _460
REMARK  190  A    between atoms: _460  and  _461
REMARK  191  A    between atoms: _464  and  _466
REMARK  192  A    between atoms: _466  and  _467
REMARK  193  A    between atoms: _466  and  _469
REMARK  194  A    between atoms: _469  and  _470
REMARK  195  A    between atoms: _473  and  _475
REMARK  196  A    between atoms: _475  and  _476
REMARK  197  A    between atoms: _475  and  _478
REMARK  198  A    between atoms: _478  and  _479
REMARK  199  A    between atoms: _484  and  _486
REMARK  200  A    between atoms: _486  and  _487
REMARK  201  A    between atoms: _486  and  _489
REMARK  202  A    between atoms: _489  and  _490
REMARK  203  A    between atoms: _490  and  _491
REMARK  204  A    between atoms: _496  and  _498
REMARK  205  A    between atoms: _498  and  _499
REMARK  206  A    between atoms: _498  and  _501
REMARK  207  A    between atoms: _501  and  _502
REMARK  208  A    between atoms: _508  and  _510
REMARK  209  A    between atoms: _510  and  _511
REMARK  210  A    between atoms: _510  and  _513
REMARK  211  A    between atoms: _513  and  _514
REMARK  212  A    between atoms: _517  and  _519
REMARK  213  A    between atoms: _519  and  _520
REMARK  214  A    between atoms: _519  and  _522
REMARK  215  A    between atoms: _522  and  _523
REMARK  216  A    between atoms: _529  and  _531
REMARK  217  A    between atoms: _531  and  _532
REMARK  218  A    between atoms: _531  and  _534
REMARK  219  A    between atoms: _534  and  _535
REMARK  220  A    between atoms: _538  and  _540
REMARK  221  A    between atoms: _540  and  _541
REMARK  222  A    between atoms: _540  and  _543
REMARK  223  A    between atoms: _543  and  _544
REMARK  224  A    between atoms: _547  and  _549
REMARK  225  A    between atoms: _549  and  _550
REMARK  226  A    between atoms: _549  and  _552
REMARK  227  A    between atoms: _552  and  _553
REMARK  228  A    between atoms: _556  and  _558
REMARK  229  A    between atoms: _558  and  _559
REMARK  230  A    between atoms: _558  and  _561
REMARK  231  A    between atoms: _564  and  _566
REMARK  232  A    between atoms: _566  and  _567
REMARK  233  A    between atoms: _566  and  _569
REMARK  234  A    between atoms: _569  and  _570
REMARK  235  A    between atoms: _573  and  _575
REMARK  236  A    between atoms: _575  and  _576
REMARK  237  A    between atoms: _575  and  _578
REMARK  238  A    between atoms: _578  and  _579
REMARK  239  A    between atoms: _586  and  _587
REMARK  240  A    between atoms: _592  and  _594
REMARK  241  A    between atoms: _594  and  _595
REMARK  242  A    between atoms: _594  and  _597
REMARK  243  A    between atoms: _597  and  _598
REMARK  244  A    between atoms: _598  and  _599
REMARK  245  A    between atoms: _601  and  _603
REMARK  246  A    between atoms: _603  and  _604
REMARK  247  A    between atoms: _603  and  _606
REMARK  248  A    between atoms: _606  and  _607
REMARK  249  A    between atoms: _607  and  _608
REMARK  250  A    between atoms: _610  and  _612
REMARK  251  A    between atoms: _612  and  _613
REMARK  252  A    between atoms: _616  and  _618
REMARK  253  A    between atoms: _618  and  _619
REMARK  254  A    between atoms: _618  and  _621
REMARK  255  A    between atoms: _621  and  _622
REMARK  256  A    between atoms: _625  and  _627
REMARK  257  A    between atoms: _627  and  _628
REMARK  258  A    between atoms: _627  and  _630
REMARK  259  A    between atoms: _630  and  _631
REMARK  260  A    between atoms: _634  and  _636
REMARK  261  A    between atoms: _636  and  _637
REMARK  262  A    between atoms: _636  and  _639
REMARK  263  A    between atoms: _639  and  _640
REMARK  264  A    between atoms: _642  and  _644
REMARK  265  A    between atoms: _644  and  _645
REMARK  266  A    between atoms: _644  and  _647
REMARK  267  A    between atoms: _650  and  _652
REMARK  268  A    between atoms: _652  and  _653
REMARK  269  A    between atoms: _652  and  _655
REMARK  270  A    between atoms: _655  and  _656
REMARK  271  A    between atoms: _656  and  _657
REMARK  272  A    between atoms: _662  and  _664
REMARK  273  A    between atoms: _664  and  _665
REMARK  274  A    between atoms: _664  and  _667
REMARK  275  A    between atoms: _671  and  _672
REMARK  276  A    between atoms: _677  and  _679
REMARK  277  A    between atoms: _679  and  _680
REMARK  278  A    between atoms: _679  and  _682
REMARK  279  A    between atoms: _682  and  _683
REMARK  280  A    between atoms: _686  and  _688
REMARK  281  A    between atoms: _688  and  _689
REMARK  282  A    between atoms: _688  and  _691
REMARK  283  A    between atoms: _691  and  _692
REMARK                            x       y       z     vdW  Elec       q    Type
REMARK                         _______ _______ _______ _____ _____    ______ ____
ROOT
ATOM      1  O   HOH     1      23.079   1.139  13.375  0.00  0.00    +0.000 OA
ENDROOT
TORSDOF 0
REMARK  Name = ../refined-set-2016/3b5r/3b5r_pocket.pdb
REMARK  283 active torsions:
REMARK  status: ('A' for Active; 'I' for Inactive)
REMARK    1  A    between atoms: _1  and  _3
REMARK    2  A    between atoms: _3  and  _4
REMARK    3  A    between atoms: _3  and  _6
REMARK    4  A    between atoms: _9  and  _11
REMARK    5  A    between atoms: _11  and  _12
REMARK    6  A    between atoms: _15  and  _17
REMARK    7  A    between atoms: _17  and  _18
REMARK    8  A    between atoms: _17  and  _20
REMARK    9  A    between atoms: _20  and  _21
REMARK   10  A    between atoms: _27  and  _29
REMARK   11  A    between atoms: _29  and  _30
REMARK   12  A    between atoms: _29  and  _32
REMARK   13  A    between atoms: _32  and  _33
REMARK   14  A    between atoms: _36  and  _38
REMARK   15  A    between atoms: _38  and  _39
REMARK   16  A    between atoms: _38  and  _41
REMARK   17  A    between atoms: _41  and  _42
REMARK   18  A    between atoms: _45  and  _47
REMARK   19  A    between atoms: _47  and  _48
REMARK   20  A    between atoms: _47  and  _50
REMARK   21  A    between atoms: _50  and  _51
REMARK   22  A    between atoms: _53  and  _55
REMARK   23  A    between atoms: _55  and  _56
REMARK   24  A    between atoms: _55  and  _58
REMARK   25  A    between atoms: _58  and  _59
REMARK   26  A    between atoms: _61  and  _63
REMARK   27  A    between atoms: _63  and  _64
REMARK   28  A    between atoms: _63  and  _66
REMARK   29  A    between atoms: _66  and  _67
REMARK   30  A    between atoms: _70  and  _72
REMARK   31  A    between atoms: _72  and  _73
REMARK   32  A    between atoms: _72  and  _75
REMARK   33  A    between atoms: _75  and  _76
REMARK   34  A    between atoms: _81  and  _83
REMARK   35  A    between atoms: _83  and  _84
REMARK   36  A    between atoms: _83  and  _86
REMARK   37  A    between atoms: _86  and  _87
REMARK   38  A    between atoms: _87  and  _88
REMARK   39  A    between atoms: _91  and  _93
REMARK   40  A    between atoms: _93  and  _94
REMARK   41  A    between atoms: _93  and  _96
REMARK   42  A    between atoms: _96  and  _97
REMARK   43  A    between atoms: _100  and  _102
REMARK   44  A    between atoms: _102  and  _103
REMARK   45  A    between atoms: _105  and  _107
REMARK   46  A    between atoms: _107  and  _108
REMARK   47  A    between atoms: _107  and  _110
REMARK   48  A    between atoms: _110  and  _111
REMARK   49  A    between atoms: _111  and  _112
REMARK   50  A    between atoms: _115  and  _117
REMARK   51  A    between atoms: _117  and  _118
REMARK   52  A    between atoms: _117  and  _120
REMARK   53  A    between atoms: _120  and  _121
REMARK   54  A    between atoms: _121  and  _122
REMARK   55  A    between atoms: _122  and  _123
REMARK   56  A    between atoms: _132  and  _134
REMARK   57  A    between atoms: _134  and  _135
REMARK   58  A    between atoms: _134  and  _137
REMARK   59  A    between atoms: _137  and  _138
REMARK   60  A    between atoms: _138  and  _139
REMARK   61  A    between atoms: _144  and  _146
REMARK   62  A    between atoms: _146  and  _147
REMARK   63  A    between atoms: _146  and  _149
REMARK   64  A    between atoms: _149  and  _150
REMARK   65  A    between atoms: _153  and  _155
REMARK   66  A    between atoms: _155  and  _156
REMARK   67  A    between atoms: _155  and  _158
REMARK   68  A    between atoms: _158  and  _159
REMARK   69  A    between atoms: _162  and  _164
REMARK   70  A    between atoms: _164  and  _165
REMARK   71  A    between atoms: _164  and  _167
REMARK   72  A    between atoms: _167  and  _168
REMARK   73  A    between atoms: _168  and  _169
REMARK   74  A    between atoms: _174  and  _176
REMARK   75  A    between atoms: _176  and  _177
REMARK   76  A    between atoms: _176  and  _179
REMARK   77  A    between atoms: _179  and  _180
REMARK   78  A    between atoms: _185  and  _186
REMARK   79  A    between atoms: _188  and  _190
REMARK   80  A    between atoms: _190  and  _191
REMARK   81  A    between atoms: _190  and  _193
REMARK   82  A    between atoms: _193  and  _194
REMARK   83  A    between atoms: _196  and  _198
REMARK   84  A    between atoms: _198  and  _199
REMARK   85  A    between atoms: _198  and  _201
REMARK   86  A    between atoms: _201  and  _202
REMARK   87  A    between atoms: _212  and  _214
REMARK   88  A    between atoms: _214  and  _215
REMARK   89  A    between atoms: _214  and  _217
REMARK   90  A    between atoms: _217  and  _218
REMARK   91  A    between atoms: _218  and  _219
REMARK   92  A    between atoms: _221  and  _223
REMARK   93  A    between atoms: _223  and  _224
REMARK   94  A    between atoms: _226  and  _228
REMARK   95  A    between atoms: _228  and  _229
REMARK   96  A    between atoms: _228  and  _231
REMARK   97  A    between atoms: _231  and  _232
REMARK   98  A    between atoms: _235  and  _237
REMARK   99  A    between atoms: _237  and  _238
REMARK  100  A    between atoms: _237  and  _240
REMARK  101  A    between atoms: _240  and  _241
REMARK  102  A    between atoms: _241  and  _242
REMARK  103  A    between atoms: _244  and  _246
REMARK  104  A    between atoms: _246  and  _247
REMARK  105  A    between atoms: _246  and  _249
REMARK  106  A    between atoms: _252  and  _254
REMARK  107  A    between atoms: _254  and  _255
REMARK  108  A    between atoms: _254  and  _257
REMARK  109  A    between atoms: _257  and  _258
REMARK  110  A    between atoms: _264  and  _266
REMARK  111  A    between atoms: _266  and  _267
REMARK  112  A    between atoms: _270  and  _272
REMARK  113  A    between atoms: _272  and  _273
REMARK  114  A    between atoms: _272  and  _275
REMARK  115  A    between atoms: _275  and  _276
REMARK  116  A    between atoms: _276  and  _277
REMARK  117  A    between atoms: _279  and  _281
REMARK  118  A    between atoms: _281  and  _282
REMARK  119  A    between atoms: _284  and  _286
REMARK  120  A    between atoms: _286  and  _287
REMARK  121  A    between atoms: _286  and  _289
REMARK  122  A    between atoms: _289  and  _290
REMARK  123  A    between atoms: _300  and  _302
REMARK  124  A    between atoms: _302  and  _303
REMARK  125  A    between atoms: _302  and  _305
REMARK  126  A    between atoms: _305  and  _306
REMARK  127  A    between atoms: _306  and  _307
REMARK  128  A    between atoms: _307  and  _308
REMARK  129  A    between atoms: _317  and  _319
REMARK  130  A    between atoms: _319  and  _320
REMARK  131  A    between atoms: _319  and  _322
REMARK  132  A    between atoms: _322  and  _323
REMARK  133  A    between atoms: _325  and  _327
REMARK  134  A    between atoms: _327  and  _328
REMARK  135  A    between atoms: _327  and  _330
REMARK  136  A    between atoms: _330  and  _331
REMARK  137  A    between atoms: _334  and  _336
REMARK  138  A    between atoms: _336  and  _337
REMARK  139  A    between atoms: _336  and  _339
REMARK  140  A    between atoms: _339  and  _340
REMARK  141  A    between atoms: _345  and  _346
REMARK  142  A    between atoms: _348  and  _350
REMARK  143  A    between atoms: _350  and  _351
REMARK  144  A    between atoms: _350  and  _353
REMARK  145  A    between atoms: _353  and  _354
REMARK  146  A    between atoms: _360  and  _362
REMARK  147  A    between atoms: _362  and  _363
REMARK  148  A    between atoms: _366  and  _368
REMARK  149  A    between atoms: _368  and  _369
REMARK  150  A    between atoms: _368  and  _371
REMARK  151  A    between atoms: _371  and  _372
REMARK  152  A    between atoms: _375  and  _377
REMARK  153  A    between atoms: _377  and  _378
REMARK  154  A    between atoms: _377  and  _380
REMARK  155  A    between atoms: _380  and  _381
REMARK  156  A    between atoms: _387  and  _389
REMARK  157  A    between atoms: _389  and  _390
REMARK  158  A    between atoms: _389  and  _392
REMARK  159  A    between atoms: _392  and  _393
REMARK  160  A    between atoms: _395  and  _397
REMARK  161  A    between atoms: _397  and  _398
REMARK  162  A    between atoms: _397  and  _400
REMARK  163  A    between atoms: _400  and  _401
REMARK  164  A    between atoms: _401  and  _402
REMARK  165  A    between atoms: _404  and  _406
REMARK  166  A    between atoms: _406  and  _407
REMARK  167  A    between atoms: _406  and  _409
REMARK  168  A    between atoms: _409  and  _410
REMARK  169  A    between atoms: _410  and  _411
REMARK  170  A    between atoms: _416  and  _418
REMARK  171  A    between atoms: _418  and  _419
REMARK  172  A    between atoms: _418  and  _421
REMARK  173  A    between atoms: _423  and  _425
REMARK  174  A    between atoms: _425  and  _426
REMARK  175  A    between atoms: _425  and  _428
REMARK  176  A    between atoms: _428  and  _429
REMARK  177  A    between atoms: _429  and  _430
REMARK  178  A    between atoms: _432  and  _434
REMARK  179  A    between atoms: _434  and  _435
REMARK  180  A    between atoms: _434  and  _437
REMARK  181  A    between atoms: _437  and  _438
REMARK  182  A    between atoms: _441  and  _443
REMARK  183  A    between atoms: _443  and  _444
REMARK  184  A    between atoms: _443  and  _446
REMARK  185  A    between atoms: _449  and  _451
REMARK  186  A    between atoms: _451  and  _452
REMARK  187  A    between atoms: _451  and  _454
REMARK  188  A    between atoms: _454  and  _455
REMARK  189  A    between atoms: _458  and  _460
REMARK  190  A    between atoms: _460  and  _461
REMARK  191  A    between atoms: _464  and  _466
REMARK  192  A    between atoms: _466  and  _467
REMARK  193  A    between atoms: _466  and  _469
REMARK  194  A    between atoms: _469  and  _470
REMARK  195  A    between atoms: _473  and  _475
REMARK  196  A    between atoms: _475  and  _476
REMARK  197  A    between atoms: _475  and  _478
REMARK  198  A    between atoms: _478  and  _479
REMARK  199  A    between atoms: _484  and  _486
REMARK  200  A    between atoms: _486  and  _487
REMARK  201  A    between atoms: _486  and  _489
REMARK  202  A    between atoms: _489  and  _490
REMARK  203  A    between atoms: _490  and  _491
REMARK  204  A    between atoms: _496  and  _498
REMARK  205  A    between atoms: _498  and  _499
REMARK  206  A    between atoms: _498  and  _501
REMARK  207  A    between atoms: _501  and  _502
REMARK  208  A    between atoms: _508  and  _510
REMARK  209  A    between atoms: _510  and  _511
REMARK  210  A    between atoms: _510  and  _513
REMARK  211  A    between atoms: _513  and  _514
REMARK  212  A    between atoms: _517  and  _519
REMARK  213  A    between atoms: _519  and  _520
REMARK  214  A    between atoms: _519  and  _522
REMARK  215  A    between atoms: _522  and  _523
REMARK  216  A    between atoms: _529  and  _531
REMARK  217  A    between atoms: _531  and  _532
REMARK  218  A    between atoms: _531  and  _534
REMARK  219  A    between atoms: _534  and  _535
REMARK  220  A    between atoms: _538  and  _540
REMARK  221  A    between atoms: _540  and  _541
REMARK  222  A    between atoms: _540  and  _543
REMARK  223  A    between atoms: _543  and  _544
REMARK  224  A    between atoms: _547  and  _549
REMARK  225  A    between atoms: _549  and  _550
REMARK  226  A    between atoms: _549  and  _552
REMARK  227  A    between atoms: _552  and  _553
REMARK  228  A    between atoms: _556  and  _558
REMARK  229  A    between atoms: _558  and  _559
REMARK  230  A    between atoms: _558  and  _561
REMARK  231  A    between atoms: _564  and  _566
REMARK  232  A    between atoms: _566  and  _567
REMARK  233  A    between atoms: _566  and  _569
REMARK  234  A    between atoms: _569  and  _570
REMARK  235  A    between atoms: _573  and  _575
REMARK  236  A    between atoms: _575  and  _576
REMARK  237  A    between atoms: _575  and  _578
REMARK  238  A    between atoms: _578  and  _579
REMARK  239  A    between atoms: _586  and  _587
REMARK  240  A    between atoms: _592  and  _594
REMARK  241  A    between atoms: _594  and  _595
REMARK  242  A    between atoms: _594  and  _597
REMARK  243  A    between atoms: _597  and  _598
REMARK  244  A    between atoms: _598  and  _599
REMARK  245  A    between atoms: _601  and  _603
REMARK  246  A    between atoms: _603  and  _604
REMARK  247  A    between atoms: _603  and  _606
REMARK  248  A    between atoms: _606  and  _607
REMARK  249  A    between atoms: _607  and  _608
REMARK  250  A    between atoms: _610  and  _612
REMARK  251  A    between atoms: _612  and  _613
REMARK  252  A    between atoms: _616  and  _618
REMARK  253  A    between atoms: _618  and  _619
REMARK  254  A    between atoms: _618  and  _621
REMARK  255  A    between atoms: _621  and  _622
REMARK  256  A    between atoms: _625  and  _627
REMARK  257  A    between atoms: _627  and  _628
REMARK  258  A    between atoms: _627  and  _630
REMARK  259  A    between atoms: _630  and  _631
REMARK  260  A    between atoms: _634  and  _636
REMARK  261  A    between atoms: _636  and  _637
REMARK  262  A    between atoms: _636  and  _639
REMARK  263  A    between atoms: _639  and  _640
REMARK  264  A    between atoms: _642  and  _644
REMARK  265  A    between atoms: _644  and  _645
REMARK  266  A    between atoms: _644  and  _647
REMARK  267  A    between atoms: _650  and  _652
REMARK  268  A    between atoms: _652  and  _653
REMARK  269  A    between atoms: _652  and  _655
REMARK  270  A    between atoms: _655  and  _656
REMARK  271  A    between atoms: _656  and  _657
REMARK  272  A    between atoms: _662  and  _664
REMARK  273  A    between atoms: _664  and  _665
REMARK  274  A    between atoms: _664  and  _667
REMARK  275  A    between atoms: _671  and  _672
REMARK  276  A    between atoms: _677  and  _679
REMARK  277  A    between atoms: _679  and  _680
REMARK  278  A    between atoms: _679  and  _682
REMARK  279  A    between atoms: _682  and  _683
REMARK  280  A    between atoms: _686  and  _688
REMARK  281  A    between atoms: _688  and  _689
REMARK  282  A    between atoms: _688  and  _691
REMARK  283  A    between atoms: _691  and  _692
REMARK                            x       y       z     vdW  Elec       q    Type
REMARK                         _______ _______ _______ _____ _____    ______ ____
ROOT
ATOM      1  O   HOH     1      23.336   9.597   5.837  0.00  0.00    +0.000 OA
ENDROOT
TORSDOF 0
REMARK  Name = ../refined-set-2016/3b5r/3b5r_pocket.pdb
REMARK  283 active torsions:
REMARK  status: ('A' for Active; 'I' for Inactive)
REMARK    1  A    between atoms: _1  and  _3
REMARK    2  A    between atoms: _3  and  _4
REMARK    3  A    between atoms: _3  and  _6
REMARK    4  A    between atoms: _9  and  _11
REMARK    5  A    between atoms: _11  and  _12
REMARK    6  A    between atoms: _15  and  _17
REMARK    7  A    between atoms: _17  and  _18
REMARK    8  A    between atoms: _17  and  _20
REMARK    9  A    between atoms: _20  and  _21
REMARK   10  A    between atoms: _27  and  _29
REMARK   11  A    between atoms: _29  and  _30
REMARK   12  A    between atoms: _29  and  _32
REMARK   13  A    between atoms: _32  and  _33
REMARK   14  A    between atoms: _36  and  _38
REMARK   15  A    between atoms: _38  and  _39
REMARK   16  A    between atoms: _38  and  _41
REMARK   17  A    between atoms: _41  and  _42
REMARK   18  A    between atoms: _45  and  _47
REMARK   19  A    between atoms: _47  and  _48
REMARK   20  A    between atoms: _47  and  _50
REMARK   21  A    between atoms: _50  and  _51
REMARK   22  A    between atoms: _53  and  _55
REMARK   23  A    between atoms: _55  and  _56
REMARK   24  A    between atoms: _55  and  _58
REMARK   25  A    between atoms: _58  and  _59
REMARK   26  A    between atoms: _61  and  _63
REMARK   27  A    between atoms: _63  and  _64
REMARK   28  A    between atoms: _63  and  _66
REMARK   29  A    between atoms: _66  and  _67
REMARK   30  A    between atoms: _70  and  _72
REMARK   31  A    between atoms: _72  and  _73
REMARK   32  A    between atoms: _72  and  _75
REMARK   33  A    between atoms: _75  and  _76
REMARK   34  A    between atoms: _81  and  _83
REMARK   35  A    between atoms: _83  and  _84
REMARK   36  A    between atoms: _83  and  _86
REMARK   37  A    between atoms: _86  and  _87
REMARK   38  A    between atoms: _87  and  _88
REMARK   39  A    between atoms: _91  and  _93
REMARK   40  A    between atoms: _93  and  _94
REMARK   41  A    between atoms: _93  and  _96
REMARK   42  A    between atoms: _96  and  _97
REMARK   43  A    between atoms: _100  and  _102
REMARK   44  A    between atoms: _102  and  _103
REMARK   45  A    between atoms: _105  and  _107
REMARK   46  A    between atoms: _107  and  _108
REMARK   47  A    between atoms: _107  and  _110
REMARK   48  A    between atoms: _110  and  _111
REMARK   49  A    between atoms: _111  and  _112
REMARK   50  A    between atoms: _115  and  _117
REMARK   51  A    between atoms: _117  and  _118
REMARK   52  A    between atoms: _117  and  _120
REMARK   53  A    between atoms: _120  and  _121
REMARK   54  A    between atoms: _121  and  _122
REMARK   55  A    between atoms: _122  and  _123
REMARK   56  A    between atoms: _132  and  _134
REMARK   57  A    between atoms: _134  and  _135
REMARK   58  A    between atoms: _134  and  _137
REMARK   59  A    between atoms: _137  and  _138
REMARK   60  A    between atoms: _138  and  _139
REMARK   61  A    between atoms: _144  and  _146
REMARK   62  A    between atoms: _146  and  _147
REMARK   63  A    between atoms: _146  and  _149
REMARK   64  A    between atoms: _149  and  _150
REMARK   65  A    between atoms: _153  and  _155
REMARK   66  A    between atoms: _155  and  _156
REMARK   67  A    between atoms: _155  and  _158
REMARK   68  A    between atoms: _158  and  _159
REMARK   69  A    between atoms: _162  and  _164
REMARK   70  A    between atoms: _164  and  _165
REMARK   71  A    between atoms: _164  and  _167
REMARK   72  A    between atoms: _167  and  _168
REMARK   73  A    between atoms: _168  and  _169
REMARK   74  A    between atoms: _174  and  _176
REMARK   75  A    between atoms: _176  and  _177
REMARK   76  A    between atoms: _176  and  _179
REMARK   77  A    between atoms: _179  and  _180
REMARK   78  A    between atoms: _185  and  _186
REMARK   79  A    between atoms: _188  and  _190
REMARK   80  A    between atoms: _190  and  _191
REMARK   81  A    between atoms: _190  and  _193
REMARK   82  A    between atoms: _193  and  _194
REMARK   83  A    between atoms: _196  and  _198
REMARK   84  A    between atoms: _198  and  _199
REMARK   85  A    between atoms: _198  and  _201
REMARK   86  A    between atoms: _201  and  _202
REMARK   87  A    between atoms: _212  and  _214
REMARK   88  A    between atoms: _214  and  _215
REMARK   89  A    between atoms: _214  and  _217
REMARK   90  A    between atoms: _217  and  _218
REMARK   91  A    between atoms: _218  and  _219
REMARK   92  A    between atoms: _221  and  _223
REMARK   93  A    between atoms: _223  and  _224
REMARK   94  A    between atoms: _226  and  _228
REMARK   95  A    between atoms: _228  and  _229
REMARK   96  A    between atoms: _228  and  _231
REMARK   97  A    between atoms: _231  and  _232
REMARK   98  A    between atoms: _235  and  _237
REMARK   99  A    between atoms: _237  and  _238
REMARK  100  A    between atoms: _237  and  _240
REMARK  101  A    between atoms: _240  and  _241
REMARK  102  A    between atoms: _241  and  _242
REMARK  103  A    between atoms: _244  and  _246
REMARK  104  A    between atoms: _246  and  _247
REMARK  105  A    between atoms: _246  and  _249
REMARK  106  A    between atoms: _252  and  _254
REMARK  107  A    between atoms: _254  and  _255
REMARK  108  A    between atoms: _254  and  _257
REMARK  109  A    between atoms: _257  and  _258
REMARK  110  A    between atoms: _264  and  _266
REMARK  111  A    between atoms: _266  and  _267
REMARK  112  A    between atoms: _270  and  _272
REMARK  113  A    between atoms: _272  and  _273
REMARK  114  A    between atoms: _272  and  _275
REMARK  115  A    between atoms: _275  and  _276
REMARK  116  A    between atoms: _276  and  _277
REMARK  117  A    between atoms: _279  and  _281
REMARK  118  A    between atoms: _281  and  _282
REMARK  119  A    between atoms: _284  and  _286
REMARK  120  A    between atoms: _286  and  _287
REMARK  121  A    between atoms: _286  and  _289
REMARK  122  A    between atoms: _289  and  _290
REMARK  123  A    between atoms: _300  and  _302
REMARK  124  A    between atoms: _302  and  _303
REMARK  125  A    between atoms: _302  and  _305
REMARK  126  A    between atoms: _305  and  _306
REMARK  127  A    between atoms: _306  and  _307
REMARK  128  A    between atoms: _307  and  _308
REMARK  129  A    between atoms: _317  and  _319
REMARK  130  A    between atoms: _319  and  _320
REMARK  131  A    between atoms: _319  and  _322
REMARK  132  A    between atoms: _322  and  _323
REMARK  133  A    between atoms: _325  and  _327
REMARK  134  A    between atoms: _327  and  _328
REMARK  135  A    between atoms: _327  and  _330
REMARK  136  A    between atoms: _330  and  _331
REMARK  137  A    between atoms: _334  and  _336
REMARK  138  A    between atoms: _336  and  _337
REMARK  139  A    between atoms: _336  and  _339
REMARK  140  A    between atoms: _339  and  _340
REMARK  141  A    between atoms: _345  and  _346
REMARK  142  A    between atoms: _348  and  _350
REMARK  143  A    between atoms: _350  and  _351
REMARK  144  A    between atoms: _350  and  _353
REMARK  145  A    between atoms: _353  and  _354
REMARK  146  A    between atoms: _360  and  _362
REMARK  147  A    between atoms: _362  and  _363
REMARK  148  A    between atoms: _366  and  _368
REMARK  149  A    between atoms: _368  and  _369
REMARK  150  A    between atoms: _368  and  _371
REMARK  151  A    between atoms: _371  and  _372
REMARK  152  A    between atoms: _375  and  _377
REMARK  153  A    between atoms: _377  and  _378
REMARK  154  A    between atoms: _377  and  _380
REMARK  155  A    between atoms: _380  and  _381
REMARK  156  A    between atoms: _387  and  _389
REMARK  157  A    between atoms: _389  and  _390
REMARK  158  A    between atoms: _389  and  _392
REMARK  159  A    between atoms: _392  and  _393
REMARK  160  A    between atoms: _395  and  _397
REMARK  161  A    between atoms: _397  and  _398
REMARK  162  A    between atoms: _397  and  _400
REMARK  163  A    between atoms: _400  and  _401
REMARK  164  A    between atoms: _401  and  _402
REMARK  165  A    between atoms: _404  and  _406
REMARK  166  A    between atoms: _406  and  _407
REMARK  167  A    between atoms: _406  and  _409
REMARK  168  A    between atoms: _409  and  _410
REMARK  169  A    between atoms: _410  and  _411
REMARK  170  A    between atoms: _416  and  _418
REMARK  171  A    between atoms: _418  and  _419
REMARK  172  A    between atoms: _418  and  _421
REMARK  173  A    between atoms: _423  and  _425
REMARK  174  A    between atoms: _425  and  _426
REMARK  175  A    between atoms: _425  and  _428
REMARK  176  A    between atoms: _428  and  _429
REMARK  177  A    between atoms: _429  and  _430
REMARK  178  A    between atoms: _432  and  _434
REMARK  179  A    between atoms: _434  and  _435
REMARK  180  A    between atoms: _434  and  _437
REMARK  181  A    between atoms: _437  and  _438
REMARK  182  A    between atoms: _441  and  _443
REMARK  183  A    between atoms: _443  and  _444
REMARK  184  A    between atoms: _443  and  _446
REMARK  185  A    between atoms: _449  and  _451
REMARK  186  A    between atoms: _451  and  _452
REMARK  187  A    between atoms: _451  and  _454
REMARK  188  A    between atoms: _454  and  _455
REMARK  189  A    between atoms: _458  and  _460
REMARK  190  A    between atoms: _460  and  _461
REMARK  191  A    between atoms: _464  and  _466
REMARK  192  A    between atoms: _466  and  _467
REMARK  193  A    between atoms: _466  and  _469
REMARK  194  A    between atoms: _469  and  _470
REMARK  195  A    between atoms: _473  and  _475
REMARK  196  A    between atoms: _475  and  _476
REMARK  197  A    between atoms: _475  and  _478
REMARK  198  A    between atoms: _478  and  _479
REMARK  199  A    between atoms: _484  and  _486
REMARK  200  A    between atoms: _486  and  _487
REMARK  201  A    between atoms: _486  and  _489
REMARK  202  A    between atoms: _489  and  _490
REMARK  203  A    between atoms: _490  and  _491
REMARK  204  A    between atoms: _496  and  _498
REMARK  205  A    between atoms: _498  and  _499
REMARK  206  A    between atoms: _498  and  _501
REMARK  207  A    between atoms: _501  and  _502
REMARK  208  A    between atoms: _508  and  _510
REMARK  209  A    between atoms: _510  and  _511
REMARK  210  A    between atoms: _510  and  _513
REMARK  211  A    between atoms: _513  and  _514
REMARK  212  A    between atoms: _517  and  _519
REMARK  213  A    between atoms: _519  and  _520
REMARK  214  A    between atoms: _519  and  _522
REMARK  215  A    between atoms: _522  and  _523
REMARK  216  A    between atoms: _529  and  _531
REMARK  217  A    between atoms: _531  and  _532
REMARK  218  A    between atoms: _531  and  _534
REMARK  219  A    between atoms: _534  and  _535
REMARK  220  A    between atoms: _538  and  _540
REMARK  221  A    between atoms: _540  and  _541
REMARK  222  A    between atoms: _540  and  _543
REMARK  223  A    between atoms: _543  and  _544
REMARK  224  A    between atoms: _547  and  _549
REMARK  225  A    between atoms: _549  and  _550
REMARK  226  A    between atoms: _549  and  _552
REMARK  227  A    between atoms: _552  and  _553
REMARK  228  A    between atoms: _556  and  _558
REMARK  229  A    between atoms: _558  and  _559
REMARK  230  A    between atoms: _558  and  _561
REMARK  231  A    between atoms: _564  and  _566
REMARK  232  A    between atoms: _566  and  _567
REMARK  233  A    between atoms: _566  and  _569
REMARK  234  A    between atoms: _569  and  _570
REMARK  235  A    between atoms: _573  and  _575
REMARK  236  A    between atoms: _575  and  _576
REMARK  237  A    between atoms: _575  and  _578
REMARK  238  A    between atoms: _578  and  _579
REMARK  239  A    between atoms: _586  and  _587
REMARK  240  A    between atoms: _592  and  _594
REMARK  241  A    between atoms: _594  and  _595
REMARK  242  A    between atoms: _594  and  _597
REMARK  243  A    between atoms: _597  and  _598
REMARK  244  A    between atoms: _598  and  _599
REMARK  245  A    between atoms: _601  and  _603
REMARK  246  A    between atoms: _603  and  _604
REMARK  247  A    between atoms: _603  and  _606
REMARK  248  A    between atoms: _606  and  _607
REMARK  249  A    between atoms: _607  and  _608
REMARK  250  A    between atoms: _610  and  _612
REMARK  251  A    between atoms: _612  and  _613
REMARK  252  A    between atoms: _616  and  _618
REMARK  253  A    between atoms: _618  and  _619
REMARK  254  A    between atoms: _618  and  _621
REMARK  255  A    between atoms: _621  and  _622
REMARK  256  A    between atoms: _625  and  _627
REMARK  257  A    between atoms: _627  and  _628
REMARK  258  A    between atoms: _627  and  _630
REMARK  259  A    between atoms: _630  and  _631
REMARK  260  A    between atoms: _634  and  _636
REMARK  261  A    between atoms: _636  and  _637
REMARK  262  A    between atoms: _636  and  _639
REMARK  263  A    between atoms: _639  and  _640
REMARK  264  A    between atoms: _642  and  _644
REMARK  265  A    between atoms: _644  and  _645
REMARK  266  A    between atoms: _644  and  _647
REMARK  267  A    between atoms: _650  and  _652
REMARK  268  A    between atoms: _652  and  _653
REMARK  269  A    between atoms: _652  and  _655
REMARK  270  A    between atoms: _655  and  _656
REMARK  271  A    between atoms: _656  and  _657
REMARK  272  A    between atoms: _662  and  _664
REMARK  273  A    between atoms: _664  and  _665
REMARK  274  A    between atoms: _664  and  _667
REMARK  275  A    between atoms: _671  and  _672
REMARK  276  A    between atoms: _677  and  _679
REMARK  277  A    between atoms: _679  and  _680
REMARK  278  A    between atoms: _679  and  _682
REMARK  279  A    between atoms: _682  and  _683
REMARK  280  A    between atoms: _686  and  _688
REMARK  281  A    between atoms: _688  and  _689
REMARK  282  A    between atoms: _688  and  _691
REMARK  283  A    between atoms: _691  and  _692
REMARK                            x       y       z     vdW  Elec       q    Type
REMARK                         _______ _______ _______ _____ _____    ______ ____
ROOT
ATOM      1  O   HOH     1      26.300  12.205   1.882  0.00  0.00    +0.000 OA
ENDROOT
TORSDOF 0
REMARK  Name = ../refined-set-2016/3b5r/3b5r_pocket.pdb
REMARK  283 active torsions:
REMARK  status: ('A' for Active; 'I' for Inactive)
REMARK    1  A    between atoms: _1  and  _3
REMARK    2  A    between atoms: _3  and  _4
REMARK    3  A    between atoms: _3  and  _6
REMARK    4  A    between atoms: _9  and  _11
REMARK    5  A    between atoms: _11  and  _12
REMARK    6  A    between atoms: _15  and  _17
REMARK    7  A    between atoms: _17  and  _18
REMARK    8  A    between atoms: _17  and  _20
REMARK    9  A    between atoms: _20  and  _21
REMARK   10  A    between atoms: _27  and  _29
REMARK   11  A    between atoms: _29  and  _30
REMARK   12  A    between atoms: _29  and  _32
REMARK   13  A    between atoms: _32  and  _33
REMARK   14  A    between atoms: _36  and  _38
REMARK   15  A    between atoms: _38  and  _39
REMARK   16  A    between atoms: _38  and  _41
REMARK   17  A    between atoms: _41  and  _42
REMARK   18  A    between atoms: _45  and  _47
REMARK   19  A    between atoms: _47  and  _48
REMARK   20  A    between atoms: _47  and  _50
REMARK   21  A    between atoms: _50  and  _51
REMARK   22  A    between atoms: _53  and  _55
REMARK   23  A    between atoms: _55  and  _56
REMARK   24  A    between atoms: _55  and  _58
REMARK   25  A    between atoms: _58  and  _59
REMARK   26  A    between atoms: _61  and  _63
REMARK   27  A    between atoms: _63  and  _64
REMARK   28  A    between atoms: _63  and  _66
REMARK   29  A    between atoms: _66  and  _67
REMARK   30  A    between atoms: _70  and  _72
REMARK   31  A    between atoms: _72  and  _73
REMARK   32  A    between atoms: _72  and  _75
REMARK   33  A    between atoms: _75  and  _76
REMARK   34  A    between atoms: _81  and  _83
REMARK   35  A    between atoms: _83  and  _84
REMARK   36  A    between atoms: _83  and  _86
REMARK   37  A    between atoms: _86  and  _87
REMARK   38  A    between atoms: _87  and  _88
REMARK   39  A    between atoms: _91  and  _93
REMARK   40  A    between atoms: _93  and  _94
REMARK   41  A    between atoms: _93  and  _96
REMARK   42  A    between atoms: _96  and  _97
REMARK   43  A    between atoms: _100  and  _102
REMARK   44  A    between atoms: _102  and  _103
REMARK   45  A    between atoms: _105  and  _107
REMARK   46  A    between atoms: _107  and  _108
REMARK   47  A    between atoms: _107  and  _110
REMARK   48  A    between atoms: _110  and  _111
REMARK   49  A    between atoms: _111  and  _112
REMARK   50  A    between atoms: _115  and  _117
REMARK   51  A    between atoms: _117  and  _118
REMARK   52  A    between atoms: _117  and  _120
REMARK   53  A    between atoms: _120  and  _121
REMARK   54  A    between atoms: _121  and  _122
REMARK   55  A    between atoms: _122  and  _123
REMARK   56  A    between atoms: _132  and  _134
REMARK   57  A    between atoms: _134  and  _135
REMARK   58  A    between atoms: _134  and  _137
REMARK   59  A    between atoms: _137  and  _138
REMARK   60  A    between atoms: _138  and  _139
REMARK   61  A    between atoms: _144  and  _146
REMARK   62  A    between atoms: _146  and  _147
REMARK   63  A    between atoms: _146  and  _149
REMARK   64  A    between atoms: _149  and  _150
REMARK   65  A    between atoms: _153  and  _155
REMARK   66  A    between atoms: _155  and  _156
REMARK   67  A    between atoms: _155  and  _158
REMARK   68  A    between atoms: _158  and  _159
REMARK   69  A    between atoms: _162  and  _164
REMARK   70  A    between atoms: _164  and  _165
REMARK   71  A    between atoms: _164  and  _167
REMARK   72  A    between atoms: _167  and  _168
REMARK   73  A    between atoms: _168  and  _169
REMARK   74  A    between atoms: _174  and  _176
REMARK   75  A    between atoms: _176  and  _177
REMARK   76  A    between atoms: _176  and  _179
REMARK   77  A    between atoms: _179  and  _180
REMARK   78  A    between atoms: _185  and  _186
REMARK   79  A    between atoms: _188  and  _190
REMARK   80  A    between atoms: _190  and  _191
REMARK   81  A    between atoms: _190  and  _193
REMARK   82  A    between atoms: _193  and  _194
REMARK   83  A    between atoms: _196  and  _198
REMARK   84  A    between atoms: _198  and  _199
REMARK   85  A    between atoms: _198  and  _201
REMARK   86  A    between atoms: _201  and  _202
REMARK   87  A    between atoms: _212  and  _214
REMARK   88  A    between atoms: _214  and  _215
REMARK   89  A    between atoms: _214  and  _217
REMARK   90  A    between atoms: _217  and  _218
REMARK   91  A    between atoms: _218  and  _219
REMARK   92  A    between atoms: _221  and  _223
REMARK   93  A    between atoms: _223  and  _224
REMARK   94  A    between atoms: _226  and  _228
REMARK   95  A    between atoms: _228  and  _229
REMARK   96  A    between atoms: _228  and  _231
REMARK   97  A    between atoms: _231  and  _232
REMARK   98  A    between atoms: _235  and  _237
REMARK   99  A    between atoms: _237  and  _238
REMARK  100  A    between atoms: _237  and  _240
REMARK  101  A    between atoms: _240  and  _241
REMARK  102  A    between atoms: _241  and  _242
REMARK  103  A    between atoms: _244  and  _246
REMARK  104  A    between atoms: _246  and  _247
REMARK  105  A    between atoms: _246  and  _249
REMARK  106  A    between atoms: _252  and  _254
REMARK  107  A    between atoms: _254  and  _255
REMARK  108  A    between atoms: _254  and  _257
REMARK  109  A    between atoms: _257  and  _258
REMARK  110  A    between atoms: _264  and  _266
REMARK  111  A    between atoms: _266  and  _267
REMARK  112  A    between atoms: _270  and  _272
REMARK  113  A    between atoms: _272  and  _273
REMARK  114  A    between atoms: _272  and  _275
REMARK  115  A    between atoms: _275  and  _276
REMARK  116  A    between atoms: _276  and  _277
REMARK  117  A    between atoms: _279  and  _281
REMARK  118  A    between atoms: _281  and  _282
REMARK  119  A    between atoms: _284  and  _286
REMARK  120  A    between atoms: _286  and  _287
REMARK  121  A    between atoms: _286  and  _289
REMARK  122  A    between atoms: _289  and  _290
REMARK  123  A    between atoms: _300  and  _302
REMARK  124  A    between atoms: _302  and  _303
REMARK  125  A    between atoms: _302  and  _305
REMARK  126  A    between atoms: _305  and  _306
REMARK  127  A    between atoms: _306  and  _307
REMARK  128  A    between atoms: _307  and  _308
REMARK  129  A    between atoms: _317  and  _319
REMARK  130  A    between atoms: _319  and  _320
REMARK  131  A    between atoms: _319  and  _322
REMARK  132  A    between atoms: _322  and  _323
REMARK  133  A    between atoms: _325  and  _327
REMARK  134  A    between atoms: _327  and  _328
REMARK  135  A    between atoms: _327  and  _330
REMARK  136  A    between atoms: _330  and  _331
REMARK  137  A    between atoms: _334  and  _336
REMARK  138  A    between atoms: _336  and  _337
REMARK  139  A    between atoms: _336  and  _339
REMARK  140  A    between atoms: _339  and  _340
REMARK  141  A    between atoms: _345  and  _346
REMARK  142  A    between atoms: _348  and  _350
REMARK  143  A    between atoms: _350  and  _351
REMARK  144  A    between atoms: _350  and  _353
REMARK  145  A    between atoms: _353  and  _354
REMARK  146  A    between atoms: _360  and  _362
REMARK  147  A    between atoms: _362  and  _363
REMARK  148  A    between atoms: _366  and  _368
REMARK  149  A    between atoms: _368  and  _369
REMARK  150  A    between atoms: _368  and  _371
REMARK  151  A    between atoms: _371  and  _372
REMARK  152  A    between atoms: _375  and  _377
REMARK  153  A    between atoms: _377  and  _378
REMARK  154  A    between atoms: _377  and  _380
REMARK  155  A    between atoms: _380  and  _381
REMARK  156  A    between atoms: _387  and  _389
REMARK  157  A    between atoms: _389  and  _390
REMARK  158  A    between atoms: _389  and  _392
REMARK  159  A    between atoms: _392  and  _393
REMARK  160  A    between atoms: _395  and  _397
REMARK  161  A    between atoms: _397  and  _398
REMARK  162  A    between atoms: _397  and  _400
REMARK  163  A    between atoms: _400  and  _401
REMARK  164  A    between atoms: _401  and  _402
REMARK  165  A    between atoms: _404  and  _406
REMARK  166  A    between atoms: _406  and  _407
REMARK  167  A    between atoms: _406  and  _409
REMARK  168  A    between atoms: _409  and  _410
REMARK  169  A    between atoms: _410  and  _411
REMARK  170  A    between atoms: _416  and  _418
REMARK  171  A    between atoms: _418  and  _419
REMARK  172  A    between atoms: _418  and  _421
REMARK  173  A    between atoms: _423  and  _425
REMARK  174  A    between atoms: _425  and  _426
REMARK  175  A    between atoms: _425  and  _428
REMARK  176  A    between atoms: _428  and  _429
REMARK  177  A    between atoms: _429  and  _430
REMARK  178  A    between atoms: _432  and  _434
REMARK  179  A    between atoms: _434  and  _435
REMARK  180  A    between atoms: _434  and  _437
REMARK  181  A    between atoms: _437  and  _438
REMARK  182  A    between atoms: _441  and  _443
REMARK  183  A    between atoms: _443  and  _444
REMARK  184  A    between atoms: _443  and  _446
REMARK  185  A    between atoms: _449  and  _451
REMARK  186  A    between atoms: _451  and  _452
REMARK  187  A    between atoms: _451  and  _454
REMARK  188  A    between atoms: _454  and  _455
REMARK  189  A    between atoms: _458  and  _460
REMARK  190  A    between atoms: _460  and  _461
REMARK  191  A    between atoms: _464  and  _466
REMARK  192  A    between atoms: _466  and  _467
REMARK  193  A    between atoms: _466  and  _469
REMARK  194  A    between atoms: _469  and  _470
REMARK  195  A    between atoms: _473  and  _475
REMARK  196  A    between atoms: _475  and  _476
REMARK  197  A    between atoms: _475  and  _478
REMARK  198  A    between atoms: _478  and  _479
REMARK  199  A    between atoms: _484  and  _486
REMARK  200  A    between atoms: _486  and  _487
REMARK  201  A    between atoms: _486  and  _489
REMARK  202  A    between atoms: _489  and  _490
REMARK  203  A    between atoms: _490  and  _491
REMARK  204  A    between atoms: _496  and  _498
REMARK  205  A    between atoms: _498  and  _499
REMARK  206  A    between atoms: _498  and  _501
REMARK  207  A    between atoms: _501  and  _502
REMARK  208  A    between atoms: _508  and  _510
REMARK  209  A    between atoms: _510  and  _511
REMARK  210  A    between atoms: _510  and  _513
REMARK  211  A    between atoms: _513  and  _514
REMARK  212  A    between atoms: _517  and  _519
REMARK  213  A    between atoms: _519  and  _520
REMARK  214  A    between atoms: _519  and  _522
REMARK  215  A    between atoms: _522  and  _523
REMARK  216  A    between atoms: _529  and  _531
REMARK  217  A    between atoms: _531  and  _532
REMARK  218  A    between atoms: _531  and  _534
REMARK  219  A    between atoms: _534  and  _535
REMARK  220  A    between atoms: _538  and  _540
REMARK  221  A    between atoms: _540  and  _541
REMARK  222  A    between atoms: _540  and  _543
REMARK  223  A    between atoms: _543  and  _544
REMARK  224  A    between atoms: _547  and  _549
REMARK  225  A    between atoms: _549  and  _550
REMARK  226  A    between atoms: _549  and  _552
REMARK  227  A    between atoms: _552  and  _553
REMARK  228  A    between atoms: _556  and  _558
REMARK  229  A    between atoms: _558  and  _559
REMARK  230  A    between atoms: _558  and  _561
REMARK  231  A    between atoms: _564  and  _566
REMARK  232  A    between atoms: _566  and  _567
REMARK  233  A    between atoms: _566  and  _569
REMARK  234  A    between atoms: _569  and  _570
REMARK  235  A    between atoms: _573  and  _575
REMARK  236  A    between atoms: _575  and  _576
REMARK  237  A    between atoms: _575  and  _578
REMARK  238  A    between atoms: _578  and  _579
REMARK  239  A    between atoms: _586  and  _587
REMARK  240  A    between atoms: _592  and  _594
REMARK  241  A    between atoms: _594  and  _595
REMARK  242  A    between atoms: _594  and  _597
REMARK  243  A    between atoms: _597  and  _598
REMARK  244  A    between atoms: _598  and  _599
REMARK  245  A    between atoms: _601  and  _603
REMARK  246  A    between atoms: _603  and  _604
REMARK  247  A    between atoms: _603  and  _606
REMARK  248  A    between atoms: _606  and  _607
REMARK  249  A    between atoms: _607  and  _608
REMARK  250  A    between atoms: _610  and  _612
REMARK  251  A    between atoms: _612  and  _613
REMARK  252  A    between atoms: _616  and  _618
REMARK  253  A    between atoms: _618  and  _619
REMARK  254  A    between atoms: _618  and  _621
REMARK  255  A    between atoms: _621  and  _622
REMARK  256  A    between atoms: _625  and  _627
REMARK  257  A    between atoms: _627  and  _628
REMARK  258  A    between atoms: _627  and  _630
REMARK  259  A    between atoms: _630  and  _631
REMARK  260  A    between atoms: _634  and  _636
REMARK  261  A    between atoms: _636  and  _637
REMARK  262  A    between atoms: _636  and  _639
REMARK  263  A    between atoms: _639  and  _640
REMARK  264  A    between atoms: _642  and  _644
REMARK  265  A    between atoms: _644  and  _645
REMARK  266  A    between atoms: _644  and  _647
REMARK  267  A    between atoms: _650  and  _652
REMARK  268  A    between atoms: _652  and  _653
REMARK  269  A    between atoms: _652  and  _655
REMARK  270  A    between atoms: _655  and  _656
REMARK  271  A    between atoms: _656  and  _657
REMARK  272  A    between atoms: _662  and  _664
REMARK  273  A    between atoms: _664  and  _665
REMARK  274  A    between atoms: _664  and  _667
REMARK  275  A    between atoms: _671  and  _672
REMARK  276  A    between atoms: _677  and  _679
REMARK  277  A    between atoms: _679  and  _680
REMARK  278  A    between atoms: _679  and  _682
REMARK  279  A    between atoms: _682  and  _683
REMARK  280  A    between atoms: _686  and  _688
REMARK  281  A    between atoms: _688  and  _689
REMARK  282  A    between atoms: _688  and  _691
REMARK  283  A    between atoms: _691  and  _692
REMARK                            x       y       z     vdW  Elec       q    Type
REMARK                         _______ _______ _______ _____ _____    ______ ____
ROOT
ATOM      1  O   HOH     1      37.834   3.691   0.921  0.00  0.00    +0.000 OA
ENDROOT
TORSDOF 0
REMARK  Name = ../refined-set-2016/3b5r/3b5r_pocket.pdb
REMARK  283 active torsions:
REMARK  status: ('A' for Active; 'I' for Inactive)
REMARK    1  A    between atoms: _1  and  _3
REMARK    2  A    between atoms: _3  and  _4
REMARK    3  A    between atoms: _3  and  _6
REMARK    4  A    between atoms: _9  and  _11
REMARK    5  A    between atoms: _11  and  _12
REMARK    6  A    between atoms: _15  and  _17
REMARK    7  A    between atoms: _17  and  _18
REMARK    8  A    between atoms: _17  and  _20
REMARK    9  A    between atoms: _20  and  _21
REMARK   10  A    between atoms: _27  and  _29
REMARK   11  A    between atoms: _29  and  _30
REMARK   12  A    between atoms: _29  and  _32
REMARK   13  A    between atoms: _32  and  _33
REMARK   14  A    between atoms: _36  and  _38
REMARK   15  A    between atoms: _38  and  _39
REMARK   16  A    between atoms: _38  and  _41
REMARK   17  A    between atoms: _41  and  _42
REMARK   18  A    between atoms: _45  and  _47
REMARK   19  A    between atoms: _47  and  _48
REMARK   20  A    between atoms: _47  and  _50
REMARK   21  A    between atoms: _50  and  _51
REMARK   22  A    between atoms: _53  and  _55
REMARK   23  A    between atoms: _55  and  _56
REMARK   24  A    between atoms: _55  and  _58
REMARK   25  A    between atoms: _58  and  _59
REMARK   26  A    between atoms: _61  and  _63
REMARK   27  A    between atoms: _63  and  _64
REMARK   28  A    between atoms: _63  and  _66
REMARK   29  A    between atoms: _66  and  _67
REMARK   30  A    between atoms: _70  and  _72
REMARK   31  A    between atoms: _72  and  _73
REMARK   32  A    between atoms: _72  and  _75
REMARK   33  A    between atoms: _75  and  _76
REMARK   34  A    between atoms: _81  and  _83
REMARK   35  A    between atoms: _83  and  _84
REMARK   36  A    between atoms: _83  and  _86
REMARK   37  A    between atoms: _86  and  _87
REMARK   38  A    between atoms: _87  and  _88
REMARK   39  A    between atoms: _91  and  _93
REMARK   40  A    between atoms: _93  and  _94
REMARK   41  A    between atoms: _93  and  _96
REMARK   42  A    between atoms: _96  and  _97
REMARK   43  A    between atoms: _100  and  _102
REMARK   44  A    between atoms: _102  and  _103
REMARK   45  A    between atoms: _105  and  _107
REMARK   46  A    between atoms: _107  and  _108
REMARK   47  A    between atoms: _107  and  _110
REMARK   48  A    between atoms: _110  and  _111
REMARK   49  A    between atoms: _111  and  _112
REMARK   50  A    between atoms: _115  and  _117
REMARK   51  A    between atoms: _117  and  _118
REMARK   52  A    between atoms: _117  and  _120
REMARK   53  A    between atoms: _120  and  _121
REMARK   54  A    between atoms: _121  and  _122
REMARK   55  A    between atoms: _122  and  _123
REMARK   56  A    between atoms: _132  and  _134
REMARK   57  A    between atoms: _134  and  _135
REMARK   58  A    between atoms: _134  and  _137
REMARK   59  A    between atoms: _137  and  _138
REMARK   60  A    between atoms: _138  and  _139
REMARK   61  A    between atoms: _144  and  _146
REMARK   62  A    between atoms: _146  and  _147
REMARK   63  A    between atoms: _146  and  _149
REMARK   64  A    between atoms: _149  and  _150
REMARK   65  A    between atoms: _153  and  _155
REMARK   66  A    between atoms: _155  and  _156
REMARK   67  A    between atoms: _155  and  _158
REMARK   68  A    between atoms: _158  and  _159
REMARK   69  A    between atoms: _162  and  _164
REMARK   70  A    between atoms: _164  and  _165
REMARK   71  A    between atoms: _164  and  _167
REMARK   72  A    between atoms: _167  and  _168
REMARK   73  A    between atoms: _168  and  _169
REMARK   74  A    between atoms: _174  and  _176
REMARK   75  A    between atoms: _176  and  _177
REMARK   76  A    between atoms: _176  and  _179
REMARK   77  A    between atoms: _179  and  _180
REMARK   78  A    between atoms: _185  and  _186
REMARK   79  A    between atoms: _188  and  _190
REMARK   80  A    between atoms: _190  and  _191
REMARK   81  A    between atoms: _190  and  _193
REMARK   82  A    between atoms: _193  and  _194
REMARK   83  A    between atoms: _196  and  _198
REMARK   84  A    between atoms: _198  and  _199
REMARK   85  A    between atoms: _198  and  _201
REMARK   86  A    between atoms: _201  and  _202
REMARK   87  A    between atoms: _212  and  _214
REMARK   88  A    between atoms: _214  and  _215
REMARK   89  A    between atoms: _214  and  _217
REMARK   90  A    between atoms: _217  and  _218
REMARK   91  A    between atoms: _218  and  _219
REMARK   92  A    between atoms: _221  and  _223
REMARK   93  A    between atoms: _223  and  _224
REMARK   94  A    between atoms: _226  and  _228
REMARK   95  A    between atoms: _228  and  _229
REMARK   96  A    between atoms: _228  and  _231
REMARK   97  A    between atoms: _231  and  _232
REMARK   98  A    between atoms: _235  and  _237
REMARK   99  A    between atoms: _237  and  _238
REMARK  100  A    between atoms: _237  and  _240
REMARK  101  A    between atoms: _240  and  _241
REMARK  102  A    between atoms: _241  and  _242
REMARK  103  A    between atoms: _244  and  _246
REMARK  104  A    between atoms: _246  and  _247
REMARK  105  A    between atoms: _246  and  _249
REMARK  106  A    between atoms: _252  and  _254
REMARK  107  A    between atoms: _254  and  _255
REMARK  108  A    between atoms: _254  and  _257
REMARK  109  A    between atoms: _257  and  _258
REMARK  110  A    between atoms: _264  and  _266
REMARK  111  A    between atoms: _266  and  _267
REMARK  112  A    between atoms: _270  and  _272
REMARK  113  A    between atoms: _272  and  _273
REMARK  114  A    between atoms: _272  and  _275
REMARK  115  A    between atoms: _275  and  _276
REMARK  116  A    between atoms: _276  and  _277
REMARK  117  A    between atoms: _279  and  _281
REMARK  118  A    between atoms: _281  and  _282
REMARK  119  A    between atoms: _284  and  _286
REMARK  120  A    between atoms: _286  and  _287
REMARK  121  A    between atoms: _286  and  _289
REMARK  122  A    between atoms: _289  and  _290
REMARK  123  A    between atoms: _300  and  _302
REMARK  124  A    between atoms: _302  and  _303
REMARK  125  A    between atoms: _302  and  _305
REMARK  126  A    between atoms: _305  and  _306
REMARK  127  A    between atoms: _306  and  _307
REMARK  128  A    between atoms: _307  and  _308
REMARK  129  A    between atoms: _317  and  _319
REMARK  130  A    between atoms: _319  and  _320
REMARK  131  A    between atoms: _319  and  _322
REMARK  132  A    between atoms: _322  and  _323
REMARK  133  A    between atoms: _325  and  _327
REMARK  134  A    between atoms: _327  and  _328
REMARK  135  A    between atoms: _327  and  _330
REMARK  136  A    between atoms: _330  and  _331
REMARK  137  A    between atoms: _334  and  _336
REMARK  138  A    between atoms: _336  and  _337
REMARK  139  A    between atoms: _336  and  _339
REMARK  140  A    between atoms: _339  and  _340
REMARK  141  A    between atoms: _345  and  _346
REMARK  142  A    between atoms: _348  and  _350
REMARK  143  A    between atoms: _350  and  _351
REMARK  144  A    between atoms: _350  and  _353
REMARK  145  A    between atoms: _353  and  _354
REMARK  146  A    between atoms: _360  and  _362
REMARK  147  A    between atoms: _362  and  _363
REMARK  148  A    between atoms: _366  and  _368
REMARK  149  A    between atoms: _368  and  _369
REMARK  150  A    between atoms: _368  and  _371
REMARK  151  A    between atoms: _371  and  _372
REMARK  152  A    between atoms: _375  and  _377
REMARK  153  A    between atoms: _377  and  _378
REMARK  154  A    between atoms: _377  and  _380
REMARK  155  A    between atoms: _380  and  _381
REMARK  156  A    between atoms: _387  and  _389
REMARK  157  A    between atoms: _389  and  _390
REMARK  158  A    between atoms: _389  and  _392
REMARK  159  A    between atoms: _392  and  _393
REMARK  160  A    between atoms: _395  and  _397
REMARK  161  A    between atoms: _397  and  _398
REMARK  162  A    between atoms: _397  and  _400
REMARK  163  A    between atoms: _400  and  _401
REMARK  164  A    between atoms: _401  and  _402
REMARK  165  A    between atoms: _404  and  _406
REMARK  166  A    between atoms: _406  and  _407
REMARK  167  A    between atoms: _406  and  _409
REMARK  168  A    between atoms: _409  and  _410
REMARK  169  A    between atoms: _410  and  _411
REMARK  170  A    between atoms: _416  and  _418
REMARK  171  A    between atoms: _418  and  _419
REMARK  172  A    between atoms: _418  and  _421
REMARK  173  A    between atoms: _423  and  _425
REMARK  174  A    between atoms: _425  and  _426
REMARK  175  A    between atoms: _425  and  _428
REMARK  176  A    between atoms: _428  and  _429
REMARK  177  A    between atoms: _429  and  _430
REMARK  178  A    between atoms: _432  and  _434
REMARK  179  A    between atoms: _434  and  _435
REMARK  180  A    between atoms: _434  and  _437
REMARK  181  A    between atoms: _437  and  _438
REMARK  182  A    between atoms: _441  and  _443
REMARK  183  A    between atoms: _443  and  _444
REMARK  184  A    between atoms: _443  and  _446
REMARK  185  A    between atoms: _449  and  _451
REMARK  186  A    between atoms: _451  and  _452
REMARK  187  A    between atoms: _451  and  _454
REMARK  188  A    between atoms: _454  and  _455
REMARK  189  A    between atoms: _458  and  _460
REMARK  190  A    between atoms: _460  and  _461
REMARK  191  A    between atoms: _464  and  _466
REMARK  192  A    between atoms: _466  and  _467
REMARK  193  A    between atoms: _466  and  _469
REMARK  194  A    between atoms: _469  and  _470
REMARK  195  A    between atoms: _473  and  _475
REMARK  196  A    between atoms: _475  and  _476
REMARK  197  A    between atoms: _475  and  _478
REMARK  198  A    between atoms: _478  and  _479
REMARK  199  A    between atoms: _484  and  _486
REMARK  200  A    between atoms: _486  and  _487
REMARK  201  A    between atoms: _486  and  _489
REMARK  202  A    between atoms: _489  and  _490
REMARK  203  A    between atoms: _490  and  _491
REMARK  204  A    between atoms: _496  and  _498
REMARK  205  A    between atoms: _498  and  _499
REMARK  206  A    between atoms: _498  and  _501
REMARK  207  A    between atoms: _501  and  _502
REMARK  208  A    between atoms: _508  and  _510
REMARK  209  A    between atoms: _510  and  _511
REMARK  210  A    between atoms: _510  and  _513
REMARK  211  A    between atoms: _513  and  _514
REMARK  212  A    between atoms: _517  and  _519
REMARK  213  A    between atoms: _519  and  _520
REMARK  214  A    between atoms: _519  and  _522
REMARK  215  A    between atoms: _522  and  _523
REMARK  216  A    between atoms: _529  and  _531
REMARK  217  A    between atoms: _531  and  _532
REMARK  218  A    between atoms: _531  and  _534
REMARK  219  A    between atoms: _534  and  _535
REMARK  220  A    between atoms: _538  and  _540
REMARK  221  A    between atoms: _540  and  _541
REMARK  222  A    between atoms: _540  and  _543
REMARK  223  A    between atoms: _543  and  _544
REMARK  224  A    between atoms: _547  and  _549
REMARK  225  A    between atoms: _549  and  _550
REMARK  226  A    between atoms: _549  and  _552
REMARK  227  A    between atoms: _552  and  _553
REMARK  228  A    between atoms: _556  and  _558
REMARK  229  A    between atoms: _558  and  _559
REMARK  230  A    between atoms: _558  and  _561
REMARK  231  A    between atoms: _564  and  _566
REMARK  232  A    between atoms: _566  and  _567
REMARK  233  A    between atoms: _566  and  _569
REMARK  234  A    between atoms: _569  and  _570
REMARK  235  A    between atoms: _573  and  _575
REMARK  236  A    between atoms: _575  and  _576
REMARK  237  A    between atoms: _575  and  _578
REMARK  238  A    between atoms: _578  and  _579
REMARK  239  A    between atoms: _586  and  _587
REMARK  240  A    between atoms: _592  and  _594
REMARK  241  A    between atoms: _594  and  _595
REMARK  242  A    between atoms: _594  and  _597
REMARK  243  A    between atoms: _597  and  _598
REMARK  244  A    between atoms: _598  and  _599
REMARK  245  A    between atoms: _601  and  _603
REMARK  246  A    between atoms: _603  and  _604
REMARK  247  A    between atoms: _603  and  _606
REMARK  248  A    between atoms: _606  and  _607
REMARK  249  A    between atoms: _607  and  _608
REMARK  250  A    between atoms: _610  and  _612
REMARK  251  A    between atoms: _612  and  _613
REMARK  252  A    between atoms: _616  and  _618
REMARK  253  A    between atoms: _618  and  _619
REMARK  254  A    between atoms: _618  and  _621
REMARK  255  A    between atoms: _621  and  _622
REMARK  256  A    between atoms: _625  and  _627
REMARK  257  A    between atoms: _627  and  _628
REMARK  258  A    between atoms: _627  and  _630
REMARK  259  A    between atoms: _630  and  _631
REMARK  260  A    between atoms: _634  and  _636
REMARK  261  A    between atoms: _636  and  _637
REMARK  262  A    between atoms: _636  and  _639
REMARK  263  A    between atoms: _639  and  _640
REMARK  264  A    between atoms: _642  and  _644
REMARK  265  A    between atoms: _644  and  _645
REMARK  266  A    between atoms: _644  and  _647
REMARK  267  A    between atoms: _650  and  _652
REMARK  268  A    between atoms: _652  and  _653
REMARK  269  A    between atoms: _652  and  _655
REMARK  270  A    between atoms: _655  and  _656
REMARK  271  A    between atoms: _656  and  _657
REMARK  272  A    between atoms: _662  and  _664
REMARK  273  A    between atoms: _664  and  _665
REMARK  274  A    between atoms: _664  and  _667
REMARK  275  A    between atoms: _671  and  _672
REMARK  276  A    between atoms: _677  and  _679
REMARK  277  A    between atoms: _679  and  _680
REMARK  278  A    between atoms: _679  and  _682
REMARK  279  A    between atoms: _682  and  _683
REMARK  280  A    between atoms: _686  and  _688
REMARK  281  A    between atoms: _688  and  _689
REMARK  282  A    between atoms: _688  and  _691
REMARK  283  A    between atoms: _691  and  _692
REMARK                            x       y       z     vdW  Elec       q    Type
REMARK                         _______ _______ _______ _____ _____    ______ ____
ROOT
ATOM      1  O   HOH     1      25.064  14.750   2.504  0.00  0.00    +0.000 OA
ENDROOT
TORSDOF 0
REMARK  Name = ../refined-set-2016/3b5r/3b5r_pocket.pdb
REMARK  283 active torsions:
REMARK  status: ('A' for Active; 'I' for Inactive)
REMARK    1  A    between atoms: _1  and  _3
REMARK    2  A    between atoms: _3  and  _4
REMARK    3  A    between atoms: _3  and  _6
REMARK    4  A    between atoms: _9  and  _11
REMARK    5  A    between atoms: _11  and  _12
REMARK    6  A    between atoms: _15  and  _17
REMARK    7  A    between atoms: _17  and  _18
REMARK    8  A    between atoms: _17  and  _20
REMARK    9  A    between atoms: _20  and  _21
REMARK   10  A    between atoms: _27  and  _29
REMARK   11  A    between atoms: _29  and  _30
REMARK   12  A    between atoms: _29  and  _32
REMARK   13  A    between atoms: _32  and  _33
REMARK   14  A    between atoms: _36  and  _38
REMARK   15  A    between atoms: _38  and  _39
REMARK   16  A    between atoms: _38  and  _41
REMARK   17  A    between atoms: _41  and  _42
REMARK   18  A    between atoms: _45  and  _47
REMARK   19  A    between atoms: _47  and  _48
REMARK   20  A    between atoms: _47  and  _50
REMARK   21  A    between atoms: _50  and  _51
REMARK   22  A    between atoms: _53  and  _55
REMARK   23  A    between atoms: _55  and  _56
REMARK   24  A    between atoms: _55  and  _58
REMARK   25  A    between atoms: _58  and  _59
REMARK   26  A    between atoms: _61  and  _63
REMARK   27  A    between atoms: _63  and  _64
REMARK   28  A    between atoms: _63  and  _66
REMARK   29  A    between atoms: _66  and  _67
REMARK   30  A    between atoms: _70  and  _72
REMARK   31  A    between atoms: _72  and  _73
REMARK   32  A    between atoms: _72  and  _75
REMARK   33  A    between atoms: _75  and  _76
REMARK   34  A    between atoms: _81  and  _83
REMARK   35  A    between atoms: _83  and  _84
REMARK   36  A    between atoms: _83  and  _86
REMARK   37  A    between atoms: _86  and  _87
REMARK   38  A    between atoms: _87  and  _88
REMARK   39  A    between atoms: _91  and  _93
REMARK   40  A    between atoms: _93  and  _94
REMARK   41  A    between atoms: _93  and  _96
REMARK   42  A    between atoms: _96  and  _97
REMARK   43  A    between atoms: _100  and  _102
REMARK   44  A    between atoms: _102  and  _103
REMARK   45  A    between atoms: _105  and  _107
REMARK   46  A    between atoms: _107  and  _108
REMARK   47  A    between atoms: _107  and  _110
REMARK   48  A    between atoms: _110  and  _111
REMARK   49  A    between atoms: _111  and  _112
REMARK   50  A    between atoms: _115  and  _117
REMARK   51  A    between atoms: _117  and  _118
REMARK   52  A    between atoms: _117  and  _120
REMARK   53  A    between atoms: _120  and  _121
REMARK   54  A    between atoms: _121  and  _122
REMARK   55  A    between atoms: _122  and  _123
REMARK   56  A    between atoms: _132  and  _134
REMARK   57  A    between atoms: _134  and  _135
REMARK   58  A    between atoms: _134  and  _137
REMARK   59  A    between atoms: _137  and  _138
REMARK   60  A    between atoms: _138  and  _139
REMARK   61  A    between atoms: _144  and  _146
REMARK   62  A    between atoms: _146  and  _147
REMARK   63  A    between atoms: _146  and  _149
REMARK   64  A    between atoms: _149  and  _150
REMARK   65  A    between atoms: _153  and  _155
REMARK   66  A    between atoms: _155  and  _156
REMARK   67  A    between atoms: _155  and  _158
REMARK   68  A    between atoms: _158  and  _159
REMARK   69  A    between atoms: _162  and  _164
REMARK   70  A    between atoms: _164  and  _165
REMARK   71  A    between atoms: _164  and  _167
REMARK   72  A    between atoms: _167  and  _168
REMARK   73  A    between atoms: _168  and  _169
REMARK   74  A    between atoms: _174  and  _176
REMARK   75  A    between atoms: _176  and  _177
REMARK   76  A    between atoms: _176  and  _179
REMARK   77  A    between atoms: _179  and  _180
REMARK   78  A    between atoms: _185  and  _186
REMARK   79  A    between atoms: _188  and  _190
REMARK   80  A    between atoms: _190  and  _191
REMARK   81  A    between atoms: _190  and  _193
REMARK   82  A    between atoms: _193  and  _194
REMARK   83  A    between atoms: _196  and  _198
REMARK   84  A    between atoms: _198  and  _199
REMARK   85  A    between atoms: _198  and  _201
REMARK   86  A    between atoms: _201  and  _202
REMARK   87  A    between atoms: _212  and  _214
REMARK   88  A    between atoms: _214  and  _215
REMARK   89  A    between atoms: _214  and  _217
REMARK   90  A    between atoms: _217  and  _218
REMARK   91  A    between atoms: _218  and  _219
REMARK   92  A    between atoms: _221  and  _223
REMARK   93  A    between atoms: _223  and  _224
REMARK   94  A    between atoms: _226  and  _228
REMARK   95  A    between atoms: _228  and  _229
REMARK   96  A    between atoms: _228  and  _231
REMARK   97  A    between atoms: _231  and  _232
REMARK   98  A    between atoms: _235  and  _237
REMARK   99  A    between atoms: _237  and  _238
REMARK  100  A    between atoms: _237  and  _240
REMARK  101  A    between atoms: _240  and  _241
REMARK  102  A    between atoms: _241  and  _242
REMARK  103  A    between atoms: _244  and  _246
REMARK  104  A    between atoms: _246  and  _247
REMARK  105  A    between atoms: _246  and  _249
REMARK  106  A    between atoms: _252  and  _254
REMARK  107  A    between atoms: _254  and  _255
REMARK  108  A    between atoms: _254  and  _257
REMARK  109  A    between atoms: _257  and  _258
REMARK  110  A    between atoms: _264  and  _266
REMARK  111  A    between atoms: _266  and  _267
REMARK  112  A    between atoms: _270  and  _272
REMARK  113  A    between atoms: _272  and  _273
REMARK  114  A    between atoms: _272  and  _275
REMARK  115  A    between atoms: _275  and  _276
REMARK  116  A    between atoms: _276  and  _277
REMARK  117  A    between atoms: _279  and  _281
REMARK  118  A    between atoms: _281  and  _282
REMARK  119  A    between atoms: _284  and  _286
REMARK  120  A    between atoms: _286  and  _287
REMARK  121  A    between atoms: _286  and  _289
REMARK  122  A    between atoms: _289  and  _290
REMARK  123  A    between atoms: _300  and  _302
REMARK  124  A    between atoms: _302  and  _303
REMARK  125  A    between atoms: _302  and  _305
REMARK  126  A    between atoms: _305  and  _306
REMARK  127  A    between atoms: _306  and  _307
REMARK  128  A    between atoms: _307  and  _308
REMARK  129  A    between atoms: _317  and  _319
REMARK  130  A    between atoms: _319  and  _320
REMARK  131  A    between atoms: _319  and  _322
REMARK  132  A    between atoms: _322  and  _323
REMARK  133  A    between atoms: _325  and  _327
REMARK  134  A    between atoms: _327  and  _328
REMARK  135  A    between atoms: _327  and  _330
REMARK  136  A    between atoms: _330  and  _331
REMARK  137  A    between atoms: _334  and  _336
REMARK  138  A    between atoms: _336  and  _337
REMARK  139  A    between atoms: _336  and  _339
REMARK  140  A    between atoms: _339  and  _340
REMARK  141  A    between atoms: _345  and  _346
REMARK  142  A    between atoms: _348  and  _350
REMARK  143  A    between atoms: _350  and  _351
REMARK  144  A    between atoms: _350  and  _353
REMARK  145  A    between atoms: _353  and  _354
REMARK  146  A    between atoms: _360  and  _362
REMARK  147  A    between atoms: _362  and  _363
REMARK  148  A    between atoms: _366  and  _368
REMARK  149  A    between atoms: _368  and  _369
REMARK  150  A    between atoms: _368  and  _371
REMARK  151  A    between atoms: _371  and  _372
REMARK  152  A    between atoms: _375  and  _377
REMARK  153  A    between atoms: _377  and  _378
REMARK  154  A    between atoms: _377  and  _380
REMARK  155  A    between atoms: _380  and  _381
REMARK  156  A    between atoms: _387  and  _389
REMARK  157  A    between atoms: _389  and  _390
REMARK  158  A    between atoms: _389  and  _392
REMARK  159  A    between atoms: _392  and  _393
REMARK  160  A    between atoms: _395  and  _397
REMARK  161  A    between atoms: _397  and  _398
REMARK  162  A    between atoms: _397  and  _400
REMARK  163  A    between atoms: _400  and  _401
REMARK  164  A    between atoms: _401  and  _402
REMARK  165  A    between atoms: _404  and  _406
REMARK  166  A    between atoms: _406  and  _407
REMARK  167  A    between atoms: _406  and  _409
REMARK  168  A    between atoms: _409  and  _410
REMARK  169  A    between atoms: _410  and  _411
REMARK  170  A    between atoms: _416  and  _418
REMARK  171  A    between atoms: _418  and  _419
REMARK  172  A    between atoms: _418  and  _421
REMARK  173  A    between atoms: _423  and  _425
REMARK  174  A    between atoms: _425  and  _426
REMARK  175  A    between atoms: _425  and  _428
REMARK  176  A    between atoms: _428  and  _429
REMARK  177  A    between atoms: _429  and  _430
REMARK  178  A    between atoms: _432  and  _434
REMARK  179  A    between atoms: _434  and  _435
REMARK  180  A    between atoms: _434  and  _437
REMARK  181  A    between atoms: _437  and  _438
REMARK  182  A    between atoms: _441  and  _443
REMARK  183  A    between atoms: _443  and  _444
REMARK  184  A    between atoms: _443  and  _446
REMARK  185  A    between atoms: _449  and  _451
REMARK  186  A    between atoms: _451  and  _452
REMARK  187  A    between atoms: _451  and  _454
REMARK  188  A    between atoms: _454  and  _455
REMARK  189  A    between atoms: _458  and  _460
REMARK  190  A    between atoms: _460  and  _461
REMARK  191  A    between atoms: _464  and  _466
REMARK  192  A    between atoms: _466  and  _467
REMARK  193  A    between atoms: _466  and  _469
REMARK  194  A    between atoms: _469  and  _470
REMARK  195  A    between atoms: _473  and  _475
REMARK  196  A    between atoms: _475  and  _476
REMARK  197  A    between atoms: _475  and  _478
REMARK  198  A    between atoms: _478  and  _479
REMARK  199  A    between atoms: _484  and  _486
REMARK  200  A    between atoms: _486  and  _487
REMARK  201  A    between atoms: _486  and  _489
REMARK  202  A    between atoms: _489  and  _490
REMARK  203  A    between atoms: _490  and  _491
REMARK  204  A    between atoms: _496  and  _498
REMARK  205  A    between atoms: _498  and  _499
REMARK  206  A    between atoms: _498  and  _501
REMARK  207  A    between atoms: _501  and  _502
REMARK  208  A    between atoms: _508  and  _510
REMARK  209  A    between atoms: _510  and  _511
REMARK  210  A    between atoms: _510  and  _513
REMARK  211  A    between atoms: _513  and  _514
REMARK  212  A    between atoms: _517  and  _519
REMARK  213  A    between atoms: _519  and  _520
REMARK  214  A    between atoms: _519  and  _522
REMARK  215  A    between atoms: _522  and  _523
REMARK  216  A    between atoms: _529  and  _531
REMARK  217  A    between atoms: _531  and  _532
REMARK  218  A    between atoms: _531  and  _534
REMARK  219  A    between atoms: _534  and  _535
REMARK  220  A    between atoms: _538  and  _540
REMARK  221  A    between atoms: _540  and  _541
REMARK  222  A    between atoms: _540  and  _543
REMARK  223  A    between atoms: _543  and  _544
REMARK  224  A    between atoms: _547  and  _549
REMARK  225  A    between atoms: _549  and  _550
REMARK  226  A    between atoms: _549  and  _552
REMARK  227  A    between atoms: _552  and  _553
REMARK  228  A    between atoms: _556  and  _558
REMARK  229  A    between atoms: _558  and  _559
REMARK  230  A    between atoms: _558  and  _561
REMARK  231  A    between atoms: _564  and  _566
REMARK  232  A    between atoms: _566  and  _567
REMARK  233  A    between atoms: _566  and  _569
REMARK  234  A    between atoms: _569  and  _570
REMARK  235  A    between atoms: _573  and  _575
REMARK  236  A    between atoms: _575  and  _576
REMARK  237  A    between atoms: _575  and  _578
REMARK  238  A    between atoms: _578  and  _579
REMARK  239  A    between atoms: _586  and  _587
REMARK  240  A    between atoms: _592  and  _594
REMARK  241  A    between atoms: _594  and  _595
REMARK  242  A    between atoms: _594  and  _597
REMARK  243  A    between atoms: _597  and  _598
REMARK  244  A    between atoms: _598  and  _599
REMARK  245  A    between atoms: _601  and  _603
REMARK  246  A    between atoms: _603  and  _604
REMARK  247  A    between atoms: _603  and  _606
REMARK  248  A    between atoms: _606  and  _607
REMARK  249  A    between atoms: _607  and  _608
REMARK  250  A    between atoms: _610  and  _612
REMARK  251  A    between atoms: _612  and  _613
REMARK  252  A    between atoms: _616  and  _618
REMARK  253  A    between atoms: _618  and  _619
REMARK  254  A    between atoms: _618  and  _621
REMARK  255  A    between atoms: _621  and  _622
REMARK  256  A    between atoms: _625  and  _627
REMARK  257  A    between atoms: _627  and  _628
REMARK  258  A    between atoms: _627  and  _630
REMARK  259  A    between atoms: _630  and  _631
REMARK  260  A    between atoms: _634  and  _636
REMARK  261  A    between atoms: _636  and  _637
REMARK  262  A    between atoms: _636  and  _639
REMARK  263  A    between atoms: _639  and  _640
REMARK  264  A    between atoms: _642  and  _644
REMARK  265  A    between atoms: _644  and  _645
REMARK  266  A    between atoms: _644  and  _647
REMARK  267  A    between atoms: _650  and  _652
REMARK  268  A    between atoms: _652  and  _653
REMARK  269  A    between atoms: _652  and  _655
REMARK  270  A    between atoms: _655  and  _656
REMARK  271  A    between atoms: _656  and  _657
REMARK  272  A    between atoms: _662  and  _664
REMARK  273  A    between atoms: _664  and  _665
REMARK  274  A    between atoms: _664  and  _667
REMARK  275  A    between atoms: _671  and  _672
REMARK  276  A    between atoms: _677  and  _679
REMARK  277  A    between atoms: _679  and  _680
REMARK  278  A    between atoms: _679  and  _682
REMARK  279  A    between atoms: _682  and  _683
REMARK  280  A    between atoms: _686  and  _688
REMARK  281  A    between atoms: _688  and  _689
REMARK  282  A    between atoms: _688  and  _691
REMARK  283  A    between atoms: _691  and  _692
REMARK                            x       y       z     vdW  Elec       q    Type
REMARK                         _______ _______ _______ _____ _____    ______ ____
ROOT
ATOM      1  O   HOH     1      24.831  15.080   5.150  0.00  0.00    +0.000 OA
ENDROOT
TORSDOF 0
REMARK  Name = ../refined-set-2016/3b5r/3b5r_pocket.pdb
REMARK  283 active torsions:
REMARK  status: ('A' for Active; 'I' for Inactive)
REMARK    1  A    between atoms: _1  and  _3
REMARK    2  A    between atoms: _3  and  _4
REMARK    3  A    between atoms: _3  and  _6
REMARK    4  A    between atoms: _9  and  _11
REMARK    5  A    between atoms: _11  and  _12
REMARK    6  A    between atoms: _15  and  _17
REMARK    7  A    between atoms: _17  and  _18
REMARK    8  A    between atoms: _17  and  _20
REMARK    9  A    between atoms: _20  and  _21
REMARK   10  A    between atoms: _27  and  _29
REMARK   11  A    between atoms: _29  and  _30
REMARK   12  A    between atoms: _29  and  _32
REMARK   13  A    between atoms: _32  and  _33
REMARK   14  A    between atoms: _36  and  _38
REMARK   15  A    between atoms: _38  and  _39
REMARK   16  A    between atoms: _38  and  _41
REMARK   17  A    between atoms: _41  and  _42
REMARK   18  A    between atoms: _45  and  _47
REMARK   19  A    between atoms: _47  and  _48
REMARK   20  A    between atoms: _47  and  _50
REMARK   21  A    between atoms: _50  and  _51
REMARK   22  A    between atoms: _53  and  _55
REMARK   23  A    between atoms: _55  and  _56
REMARK   24  A    between atoms: _55  and  _58
REMARK   25  A    between atoms: _58  and  _59
REMARK   26  A    between atoms: _61  and  _63
REMARK   27  A    between atoms: _63  and  _64
REMARK   28  A    between atoms: _63  and  _66
REMARK   29  A    between atoms: _66  and  _67
REMARK   30  A    between atoms: _70  and  _72
REMARK   31  A    between atoms: _72  and  _73
REMARK   32  A    between atoms: _72  and  _75
REMARK   33  A    between atoms: _75  and  _76
REMARK   34  A    between atoms: _81  and  _83
REMARK   35  A    between atoms: _83  and  _84
REMARK   36  A    between atoms: _83  and  _86
REMARK   37  A    between atoms: _86  and  _87
REMARK   38  A    between atoms: _87  and  _88
REMARK   39  A    between atoms: _91  and  _93
REMARK   40  A    between atoms: _93  and  _94
REMARK   41  A    between atoms: _93  and  _96
REMARK   42  A    between atoms: _96  and  _97
REMARK   43  A    between atoms: _100  and  _102
REMARK   44  A    between atoms: _102  and  _103
REMARK   45  A    between atoms: _105  and  _107
REMARK   46  A    between atoms: _107  and  _108
REMARK   47  A    between atoms: _107  and  _110
REMARK   48  A    between atoms: _110  and  _111
REMARK   49  A    between atoms: _111  and  _112
REMARK   50  A    between atoms: _115  and  _117
REMARK   51  A    between atoms: _117  and  _118
REMARK   52  A    between atoms: _117  and  _120
REMARK   53  A    between atoms: _120  and  _121
REMARK   54  A    between atoms: _121  and  _122
REMARK   55  A    between atoms: _122  and  _123
REMARK   56  A    between atoms: _132  and  _134
REMARK   57  A    between atoms: _134  and  _135
REMARK   58  A    between atoms: _134  and  _137
REMARK   59  A    between atoms: _137  and  _138
REMARK   60  A    between atoms: _138  and  _139
REMARK   61  A    between atoms: _144  and  _146
REMARK   62  A    between atoms: _146  and  _147
REMARK   63  A    between atoms: _146  and  _149
REMARK   64  A    between atoms: _149  and  _150
REMARK   65  A    between atoms: _153  and  _155
REMARK   66  A    between atoms: _155  and  _156
REMARK   67  A    between atoms: _155  and  _158
REMARK   68  A    between atoms: _158  and  _159
REMARK   69  A    between atoms: _162  and  _164
REMARK   70  A    between atoms: _164  and  _165
REMARK   71  A    between atoms: _164  and  _167
REMARK   72  A    between atoms: _167  and  _168
REMARK   73  A    between atoms: _168  and  _169
REMARK   74  A    between atoms: _174  and  _176
REMARK   75  A    between atoms: _176  and  _177
REMARK   76  A    between atoms: _176  and  _179
REMARK   77  A    between atoms: _179  and  _180
REMARK   78  A    between atoms: _185  and  _186
REMARK   79  A    between atoms: _188  and  _190
REMARK   80  A    between atoms: _190  and  _191
REMARK   81  A    between atoms: _190  and  _193
REMARK   82  A    between atoms: _193  and  _194
REMARK   83  A    between atoms: _196  and  _198
REMARK   84  A    between atoms: _198  and  _199
REMARK   85  A    between atoms: _198  and  _201
REMARK   86  A    between atoms: _201  and  _202
REMARK   87  A    between atoms: _212  and  _214
REMARK   88  A    between atoms: _214  and  _215
REMARK   89  A    between atoms: _214  and  _217
REMARK   90  A    between atoms: _217  and  _218
REMARK   91  A    between atoms: _218  and  _219
REMARK   92  A    between atoms: _221  and  _223
REMARK   93  A    between atoms: _223  and  _224
REMARK   94  A    between atoms: _226  and  _228
REMARK   95  A    between atoms: _228  and  _229
REMARK   96  A    between atoms: _228  and  _231
REMARK   97  A    between atoms: _231  and  _232
REMARK   98  A    between atoms: _235  and  _237
REMARK   99  A    between atoms: _237  and  _238
REMARK  100  A    between atoms: _237  and  _240
REMARK  101  A    between atoms: _240  and  _241
REMARK  102  A    between atoms: _241  and  _242
REMARK  103  A    between atoms: _244  and  _246
REMARK  104  A    between atoms: _246  and  _247
REMARK  105  A    between atoms: _246  and  _249
REMARK  106  A    between atoms: _252  and  _254
REMARK  107  A    between atoms: _254  and  _255
REMARK  108  A    between atoms: _254  and  _257
REMARK  109  A    between atoms: _257  and  _258
REMARK  110  A    between atoms: _264  and  _266
REMARK  111  A    between atoms: _266  and  _267
REMARK  112  A    between atoms: _270  and  _272
REMARK  113  A    between atoms: _272  and  _273
REMARK  114  A    between atoms: _272  and  _275
REMARK  115  A    between atoms: _275  and  _276
REMARK  116  A    between atoms: _276  and  _277
REMARK  117  A    between atoms: _279  and  _281
REMARK  118  A    between atoms: _281  and  _282
REMARK  119  A    between atoms: _284  and  _286
REMARK  120  A    between atoms: _286  and  _287
REMARK  121  A    between atoms: _286  and  _289
REMARK  122  A    between atoms: _289  and  _290
REMARK  123  A    between atoms: _300  and  _302
REMARK  124  A    between atoms: _302  and  _303
REMARK  125  A    between atoms: _302  and  _305
REMARK  126  A    between atoms: _305  and  _306
REMARK  127  A    between atoms: _306  and  _307
REMARK  128  A    between atoms: _307  and  _308
REMARK  129  A    between atoms: _317  and  _319
REMARK  130  A    between atoms: _319  and  _320
REMARK  131  A    between atoms: _319  and  _322
REMARK  132  A    between atoms: _322  and  _323
REMARK  133  A    between atoms: _325  and  _327
REMARK  134  A    between atoms: _327  and  _328
REMARK  135  A    between atoms: _327  and  _330
REMARK  136  A    between atoms: _330  and  _331
REMARK  137  A    between atoms: _334  and  _336
REMARK  138  A    between atoms: _336  and  _337
REMARK  139  A    between atoms: _336  and  _339
REMARK  140  A    between atoms: _339  and  _340
REMARK  141  A    between atoms: _345  and  _346
REMARK  142  A    between atoms: _348  and  _350
REMARK  143  A    between atoms: _350  and  _351
REMARK  144  A    between atoms: _350  and  _353
REMARK  145  A    between atoms: _353  and  _354
REMARK  146  A    between atoms: _360  and  _362
REMARK  147  A    between atoms: _362  and  _363
REMARK  148  A    between atoms: _366  and  _368
REMARK  149  A    between atoms: _368  and  _369
REMARK  150  A    between atoms: _368  and  _371
REMARK  151  A    between atoms: _371  and  _372
REMARK  152  A    between atoms: _375  and  _377
REMARK  153  A    between atoms: _377  and  _378
REMARK  154  A    between atoms: _377  and  _380
REMARK  155  A    between atoms: _380  and  _381
REMARK  156  A    between atoms: _387  and  _389
REMARK  157  A    between atoms: _389  and  _390
REMARK  158  A    between atoms: _389  and  _392
REMARK  159  A    between atoms: _392  and  _393
REMARK  160  A    between atoms: _395  and  _397
REMARK  161  A    between atoms: _397  and  _398
REMARK  162  A    between atoms: _397  and  _400
REMARK  163  A    between atoms: _400  and  _401
REMARK  164  A    between atoms: _401  and  _402
REMARK  165  A    between atoms: _404  and  _406
REMARK  166  A    between atoms: _406  and  _407
REMARK  167  A    between atoms: _406  and  _409
REMARK  168  A    between atoms: _409  and  _410
REMARK  169  A    between atoms: _410  and  _411
REMARK  170  A    between atoms: _416  and  _418
REMARK  171  A    between atoms: _418  and  _419
REMARK  172  A    between atoms: _418  and  _421
REMARK  173  A    between atoms: _423  and  _425
REMARK  174  A    between atoms: _425  and  _426
REMARK  175  A    between atoms: _425  and  _428
REMARK  176  A    between atoms: _428  and  _429
REMARK  177  A    between atoms: _429  and  _430
REMARK  178  A    between atoms: _432  and  _434
REMARK  179  A    between atoms: _434  and  _435
REMARK  180  A    between atoms: _434  and  _437
REMARK  181  A    between atoms: _437  and  _438
REMARK  182  A    between atoms: _441  and  _443
REMARK  183  A    between atoms: _443  and  _444
REMARK  184  A    between atoms: _443  and  _446
REMARK  185  A    between atoms: _449  and  _451
REMARK  186  A    between atoms: _451  and  _452
REMARK  187  A    between atoms: _451  and  _454
REMARK  188  A    between atoms: _454  and  _455
REMARK  189  A    between atoms: _458  and  _460
REMARK  190  A    between atoms: _460  and  _461
REMARK  191  A    between atoms: _464  and  _466
REMARK  192  A    between atoms: _466  and  _467
REMARK  193  A    between atoms: _466  and  _469
REMARK  194  A    between atoms: _469  and  _470
REMARK  195  A    between atoms: _473  and  _475
REMARK  196  A    between atoms: _475  and  _476
REMARK  197  A    between atoms: _475  and  _478
REMARK  198  A    between atoms: _478  and  _479
REMARK  199  A    between atoms: _484  and  _486
REMARK  200  A    between atoms: _486  and  _487
REMARK  201  A    between atoms: _486  and  _489
REMARK  202  A    between atoms: _489  and  _490
REMARK  203  A    between atoms: _490  and  _491
REMARK  204  A    between atoms: _496  and  _498
REMARK  205  A    between atoms: _498  and  _499
REMARK  206  A    between atoms: _498  and  _501
REMARK  207  A    between atoms: _501  and  _502
REMARK  208  A    between atoms: _508  and  _510
REMARK  209  A    between atoms: _510  and  _511
REMARK  210  A    between atoms: _510  and  _513
REMARK  211  A    between atoms: _513  and  _514
REMARK  212  A    between atoms: _517  and  _519
REMARK  213  A    between atoms: _519  and  _520
REMARK  214  A    between atoms: _519  and  _522
REMARK  215  A    between atoms: _522  and  _523
REMARK  216  A    between atoms: _529  and  _531
REMARK  217  A    between atoms: _531  and  _532
REMARK  218  A    between atoms: _531  and  _534
REMARK  219  A    between atoms: _534  and  _535
REMARK  220  A    between atoms: _538  and  _540
REMARK  221  A    between atoms: _540  and  _541
REMARK  222  A    between atoms: _540  and  _543
REMARK  223  A    between atoms: _543  and  _544
REMARK  224  A    between atoms: _547  and  _549
REMARK  225  A    between atoms: _549  and  _550
REMARK  226  A    between atoms: _549  and  _552
REMARK  227  A    between atoms: _552  and  _553
REMARK  228  A    between atoms: _556  and  _558
REMARK  229  A    between atoms: _558  and  _559
REMARK  230  A    between atoms: _558  and  _561
REMARK  231  A    between atoms: _564  and  _566
REMARK  232  A    between atoms: _566  and  _567
REMARK  233  A    between atoms: _566  and  _569
REMARK  234  A    between atoms: _569  and  _570
REMARK  235  A    between atoms: _573  and  _575
REMARK  236  A    between atoms: _575  and  _576
REMARK  237  A    between atoms: _575  and  _578
REMARK  238  A    between atoms: _578  and  _579
REMARK  239  A    between atoms: _586  and  _587
REMARK  240  A    between atoms: _592  and  _594
REMARK  241  A    between atoms: _594  and  _595
REMARK  242  A    between atoms: _594  and  _597
REMARK  243  A    between atoms: _597  and  _598
REMARK  244  A    between atoms: _598  and  _599
REMARK  245  A    between atoms: _601  and  _603
REMARK  246  A    between atoms: _603  and  _604
REMARK  247  A    between atoms: _603  and  _606
REMARK  248  A    between atoms: _606  and  _607
REMARK  249  A    between atoms: _607  and  _608
REMARK  250  A    between atoms: _610  and  _612
REMARK  251  A    between atoms: _612  and  _613
REMARK  252  A    between atoms: _616  and  _618
REMARK  253  A    between atoms: _618  and  _619
REMARK  254  A    between atoms: _618  and  _621
REMARK  255  A    between atoms: _621  and  _622
REMARK  256  A    between atoms: _625  and  _627
REMARK  257  A    between atoms: _627  and  _628
REMARK  258  A    between atoms: _627  and  _630
REMARK  259  A    between atoms: _630  and  _631
REMARK  260  A    between atoms: _634  and  _636
REMARK  261  A    between atoms: _636  and  _637
REMARK  262  A    between atoms: _636  and  _639
REMARK  263  A    between atoms: _639  and  _640
REMARK  264  A    between atoms: _642  and  _644
REMARK  265  A    between atoms: _644  and  _645
REMARK  266  A    between atoms: _644  and  _647
REMARK  267  A    between atoms: _650  and  _652
REMARK  268  A    between atoms: _652  and  _653
REMARK  269  A    between atoms: _652  and  _655
REMARK  270  A    between atoms: _655  and  _656
REMARK  271  A    between atoms: _656  and  _657
REMARK  272  A    between atoms: _662  and  _664
REMARK  273  A    between atoms: _664  and  _665
REMARK  274  A    between atoms: _664  and  _667
REMARK  275  A    between atoms: _671  and  _672
REMARK  276  A    between atoms: _677  and  _679
REMARK  277  A    between atoms: _679  and  _680
REMARK  278  A    between atoms: _679  and  _682
REMARK  279  A    between atoms: _682  and  _683
REMARK  280  A    between atoms: _686  and  _688
REMARK  281  A    between atoms: _688  and  _689
REMARK  282  A    between atoms: _688  and  _691
REMARK  283  A    between atoms: _691  and  _692
REMARK                            x       y       z     vdW  Elec       q    Type
REMARK                         _______ _______ _______ _____ _____    ______ ____
ROOT
ATOM      1  O   HOH     1      20.578  14.377   5.501  0.00  0.00    +0.000 OA
ENDROOT
TORSDOF 0
REMARK  Name = ../refined-set-2016/3b5r/3b5r_pocket.pdb
REMARK  283 active torsions:
REMARK  status: ('A' for Active; 'I' for Inactive)
REMARK    1  A    between atoms: _1  and  _3
REMARK    2  A    between atoms: _3  and  _4
REMARK    3  A    between atoms: _3  and  _6
REMARK    4  A    between atoms: _9  and  _11
REMARK    5  A    between atoms: _11  and  _12
REMARK    6  A    between atoms: _15  and  _17
REMARK    7  A    between atoms: _17  and  _18
REMARK    8  A    between atoms: _17  and  _20
REMARK    9  A    between atoms: _20  and  _21
REMARK   10  A    between atoms: _27  and  _29
REMARK   11  A    between atoms: _29  and  _30
REMARK   12  A    between atoms: _29  and  _32
REMARK   13  A    between atoms: _32  and  _33
REMARK   14  A    between atoms: _36  and  _38
REMARK   15  A    between atoms: _38  and  _39
REMARK   16  A    between atoms: _38  and  _41
REMARK   17  A    between atoms: _41  and  _42
REMARK   18  A    between atoms: _45  and  _47
REMARK   19  A    between atoms: _47  and  _48
REMARK   20  A    between atoms: _47  and  _50
REMARK   21  A    between atoms: _50  and  _51
REMARK   22  A    between atoms: _53  and  _55
REMARK   23  A    between atoms: _55  and  _56
REMARK   24  A    between atoms: _55  and  _58
REMARK   25  A    between atoms: _58  and  _59
REMARK   26  A    between atoms: _61  and  _63
REMARK   27  A    between atoms: _63  and  _64
REMARK   28  A    between atoms: _63  and  _66
REMARK   29  A    between atoms: _66  and  _67
REMARK   30  A    between atoms: _70  and  _72
REMARK   31  A    between atoms: _72  and  _73
REMARK   32  A    between atoms: _72  and  _75
REMARK   33  A    between atoms: _75  and  _76
REMARK   34  A    between atoms: _81  and  _83
REMARK   35  A    between atoms: _83  and  _84
REMARK   36  A    between atoms: _83  and  _86
REMARK   37  A    between atoms: _86  and  _87
REMARK   38  A    between atoms: _87  and  _88
REMARK   39  A    between atoms: _91  and  _93
REMARK   40  A    between atoms: _93  and  _94
REMARK   41  A    between atoms: _93  and  _96
REMARK   42  A    between atoms: _96  and  _97
REMARK   43  A    between atoms: _100  and  _102
REMARK   44  A    between atoms: _102  and  _103
REMARK   45  A    between atoms: _105  and  _107
REMARK   46  A    between atoms: _107  and  _108
REMARK   47  A    between atoms: _107  and  _110
REMARK   48  A    between atoms: _110  and  _111
REMARK   49  A    between atoms: _111  and  _112
REMARK   50  A    between atoms: _115  and  _117
REMARK   51  A    between atoms: _117  and  _118
REMARK   52  A    between atoms: _117  and  _120
REMARK   53  A    between atoms: _120  and  _121
REMARK   54  A    between atoms: _121  and  _122
REMARK   55  A    between atoms: _122  and  _123
REMARK   56  A    between atoms: _132  and  _134
REMARK   57  A    between atoms: _134  and  _135
REMARK   58  A    between atoms: _134  and  _137
REMARK   59  A    between atoms: _137  and  _138
REMARK   60  A    between atoms: _138  and  _139
REMARK   61  A    between atoms: _144  and  _146
REMARK   62  A    between atoms: _146  and  _147
REMARK   63  A    between atoms: _146  and  _149
REMARK   64  A    between atoms: _149  and  _150
REMARK   65  A    between atoms: _153  and  _155
REMARK   66  A    between atoms: _155  and  _156
REMARK   67  A    between atoms: _155  and  _158
REMARK   68  A    between atoms: _158  and  _159
REMARK   69  A    between atoms: _162  and  _164
REMARK   70  A    between atoms: _164  and  _165
REMARK   71  A    between atoms: _164  and  _167
REMARK   72  A    between atoms: _167  and  _168
REMARK   73  A    between atoms: _168  and  _169
REMARK   74  A    between atoms: _174  and  _176
REMARK   75  A    between atoms: _176  and  _177
REMARK   76  A    between atoms: _176  and  _179
REMARK   77  A    between atoms: _179  and  _180
REMARK   78  A    between atoms: _185  and  _186
REMARK   79  A    between atoms: _188  and  _190
REMARK   80  A    between atoms: _190  and  _191
REMARK   81  A    between atoms: _190  and  _193
REMARK   82  A    between atoms: _193  and  _194
REMARK   83  A    between atoms: _196  and  _198
REMARK   84  A    between atoms: _198  and  _199
REMARK   85  A    between atoms: _198  and  _201
REMARK   86  A    between atoms: _201  and  _202
REMARK   87  A    between atoms: _212  and  _214
REMARK   88  A    between atoms: _214  and  _215
REMARK   89  A    between atoms: _214  and  _217
REMARK   90  A    between atoms: _217  and  _218
REMARK   91  A    between atoms: _218  and  _219
REMARK   92  A    between atoms: _221  and  _223
REMARK   93  A    between atoms: _223  and  _224
REMARK   94  A    between atoms: _226  and  _228
REMARK   95  A    between atoms: _228  and  _229
REMARK   96  A    between atoms: _228  and  _231
REMARK   97  A    between atoms: _231  and  _232
REMARK   98  A    between atoms: _235  and  _237
REMARK   99  A    between atoms: _237  and  _238
REMARK  100  A    between atoms: _237  and  _240
REMARK  101  A    between atoms: _240  and  _241
REMARK  102  A    between atoms: _241  and  _242
REMARK  103  A    between atoms: _244  and  _246
REMARK  104  A    between atoms: _246  and  _247
REMARK  105  A    between atoms: _246  and  _249
REMARK  106  A    between atoms: _252  and  _254
REMARK  107  A    between atoms: _254  and  _255
REMARK  108  A    between atoms: _254  and  _257
REMARK  109  A    between atoms: _257  and  _258
REMARK  110  A    between atoms: _264  and  _266
REMARK  111  A    between atoms: _266  and  _267
REMARK  112  A    between atoms: _270  and  _272
REMARK  113  A    between atoms: _272  and  _273
REMARK  114  A    between atoms: _272  and  _275
REMARK  115  A    between atoms: _275  and  _276
REMARK  116  A    between atoms: _276  and  _277
REMARK  117  A    between atoms: _279  and  _281
REMARK  118  A    between atoms: _281  and  _282
REMARK  119  A    between atoms: _284  and  _286
REMARK  120  A    between atoms: _286  and  _287
REMARK  121  A    between atoms: _286  and  _289
REMARK  122  A    between atoms: _289  and  _290
REMARK  123  A    between atoms: _300  and  _302
REMARK  124  A    between atoms: _302  and  _303
REMARK  125  A    between atoms: _302  and  _305
REMARK  126  A    between atoms: _305  and  _306
REMARK  127  A    between atoms: _306  and  _307
REMARK  128  A    between atoms: _307  and  _308
REMARK  129  A    between atoms: _317  and  _319
REMARK  130  A    between atoms: _319  and  _320
REMARK  131  A    between atoms: _319  and  _322
REMARK  132  A    between atoms: _322  and  _323
REMARK  133  A    between atoms: _325  and  _327
REMARK  134  A    between atoms: _327  and  _328
REMARK  135  A    between atoms: _327  and  _330
REMARK  136  A    between atoms: _330  and  _331
REMARK  137  A    between atoms: _334  and  _336
REMARK  138  A    between atoms: _336  and  _337
REMARK  139  A    between atoms: _336  and  _339
REMARK  140  A    between atoms: _339  and  _340
REMARK  141  A    between atoms: _345  and  _346
REMARK  142  A    between atoms: _348  and  _350
REMARK  143  A    between atoms: _350  and  _351
REMARK  144  A    between atoms: _350  and  _353
REMARK  145  A    between atoms: _353  and  _354
REMARK  146  A    between atoms: _360  and  _362
REMARK  147  A    between atoms: _362  and  _363
REMARK  148  A    between atoms: _366  and  _368
REMARK  149  A    between atoms: _368  and  _369
REMARK  150  A    between atoms: _368  and  _371
REMARK  151  A    between atoms: _371  and  _372
REMARK  152  A    between atoms: _375  and  _377
REMARK  153  A    between atoms: _377  and  _378
REMARK  154  A    between atoms: _377  and  _380
REMARK  155  A    between atoms: _380  and  _381
REMARK  156  A    between atoms: _387  and  _389
REMARK  157  A    between atoms: _389  and  _390
REMARK  158  A    between atoms: _389  and  _392
REMARK  159  A    between atoms: _392  and  _393
REMARK  160  A    between atoms: _395  and  _397
REMARK  161  A    between atoms: _397  and  _398
REMARK  162  A    between atoms: _397  and  _400
REMARK  163  A    between atoms: _400  and  _401
REMARK  164  A    between atoms: _401  and  _402
REMARK  165  A    between atoms: _404  and  _406
REMARK  166  A    between atoms: _406  and  _407
REMARK  167  A    between atoms: _406  and  _409
REMARK  168  A    between atoms: _409  and  _410
REMARK  169  A    between atoms: _410  and  _411
REMARK  170  A    between atoms: _416  and  _418
REMARK  171  A    between atoms: _418  and  _419
REMARK  172  A    between atoms: _418  and  _421
REMARK  173  A    between atoms: _423  and  _425
REMARK  174  A    between atoms: _425  and  _426
REMARK  175  A    between atoms: _425  and  _428
REMARK  176  A    between atoms: _428  and  _429
REMARK  177  A    between atoms: _429  and  _430
REMARK  178  A    between atoms: _432  and  _434
REMARK  179  A    between atoms: _434  and  _435
REMARK  180  A    between atoms: _434  and  _437
REMARK  181  A    between atoms: _437  and  _438
REMARK  182  A    between atoms: _441  and  _443
REMARK  183  A    between atoms: _443  and  _444
REMARK  184  A    between atoms: _443  and  _446
REMARK  185  A    between atoms: _449  and  _451
REMARK  186  A    between atoms: _451  and  _452
REMARK  187  A    between atoms: _451  and  _454
REMARK  188  A    between atoms: _454  and  _455
REMARK  189  A    between atoms: _458  and  _460
REMARK  190  A    between atoms: _460  and  _461
REMARK  191  A    between atoms: _464  and  _466
REMARK  192  A    between atoms: _466  and  _467
REMARK  193  A    between atoms: _466  and  _469
REMARK  194  A    between atoms: _469  and  _470
REMARK  195  A    between atoms: _473  and  _475
REMARK  196  A    between atoms: _475  and  _476
REMARK  197  A    between atoms: _475  and  _478
REMARK  198  A    between atoms: _478  and  _479
REMARK  199  A    between atoms: _484  and  _486
REMARK  200  A    between atoms: _486  and  _487
REMARK  201  A    between atoms: _486  and  _489
REMARK  202  A    between atoms: _489  and  _490
REMARK  203  A    between atoms: _490  and  _491
REMARK  204  A    between atoms: _496  and  _498
REMARK  205  A    between atoms: _498  and  _499
REMARK  206  A    between atoms: _498  and  _501
REMARK  207  A    between atoms: _501  and  _502
REMARK  208  A    between atoms: _508  and  _510
REMARK  209  A    between atoms: _510  and  _511
REMARK  210  A    between atoms: _510  and  _513
REMARK  211  A    between atoms: _513  and  _514
REMARK  212  A    between atoms: _517  and  _519
REMARK  213  A    between atoms: _519  and  _520
REMARK  214  A    between atoms: _519  and  _522
REMARK  215  A    between atoms: _522  and  _523
REMARK  216  A    between atoms: _529  and  _531
REMARK  217  A    between atoms: _531  and  _532
REMARK  218  A    between atoms: _531  and  _534
REMARK  219  A    between atoms: _534  and  _535
REMARK  220  A    between atoms: _538  and  _540
REMARK  221  A    between atoms: _540  and  _541
REMARK  222  A    between atoms: _540  and  _543
REMARK  223  A    between atoms: _543  and  _544
REMARK  224  A    between atoms: _547  and  _549
REMARK  225  A    between atoms: _549  and  _550
REMARK  226  A    between atoms: _549  and  _552
REMARK  227  A    between atoms: _552  and  _553
REMARK  228  A    between atoms: _556  and  _558
REMARK  229  A    between atoms: _558  and  _559
REMARK  230  A    between atoms: _558  and  _561
REMARK  231  A    between atoms: _564  and  _566
REMARK  232  A    between atoms: _566  and  _567
REMARK  233  A    between atoms: _566  and  _569
REMARK  234  A    between atoms: _569  and  _570
REMARK  235  A    between atoms: _573  and  _575
REMARK  236  A    between atoms: _575  and  _576
REMARK  237  A    between atoms: _575  and  _578
REMARK  238  A    between atoms: _578  and  _579
REMARK  239  A    between atoms: _586  and  _587
REMARK  240  A    between atoms: _592  and  _594
REMARK  241  A    between atoms: _594  and  _595
REMARK  242  A    between atoms: _594  and  _597
REMARK  243  A    between atoms: _597  and  _598
REMARK  244  A    between atoms: _598  and  _599
REMARK  245  A    between atoms: _601  and  _603
REMARK  246  A    between atoms: _603  and  _604
REMARK  247  A    between atoms: _603  and  _606
REMARK  248  A    between atoms: _606  and  _607
REMARK  249  A    between atoms: _607  and  _608
REMARK  250  A    between atoms: _610  and  _612
REMARK  251  A    between atoms: _612  and  _613
REMARK  252  A    between atoms: _616  and  _618
REMARK  253  A    between atoms: _618  and  _619
REMARK  254  A    between atoms: _618  and  _621
REMARK  255  A    between atoms: _621  and  _622
REMARK  256  A    between atoms: _625  and  _627
REMARK  257  A    between atoms: _627  and  _628
REMARK  258  A    between atoms: _627  and  _630
REMARK  259  A    between atoms: _630  and  _631
REMARK  260  A    between atoms: _634  and  _636
REMARK  261  A    between atoms: _636  and  _637
REMARK  262  A    between atoms: _636  and  _639
REMARK  263  A    between atoms: _639  and  _640
REMARK  264  A    between atoms: _642  and  _644
REMARK  265  A    between atoms: _644  and  _645
REMARK  266  A    between atoms: _644  and  _647
REMARK  267  A    between atoms: _650  and  _652
REMARK  268  A    between atoms: _652  and  _653
REMARK  269  A    between atoms: _652  and  _655
REMARK  270  A    between atoms: _655  and  _656
REMARK  271  A    between atoms: _656  and  _657
REMARK  272  A    between atoms: _662  and  _664
REMARK  273  A    between atoms: _664  and  _665
REMARK  274  A    between atoms: _664  and  _667
REMARK  275  A    between atoms: _671  and  _672
REMARK  276  A    between atoms: _677  and  _679
REMARK  277  A    between atoms: _679  and  _680
REMARK  278  A    between atoms: _679  and  _682
REMARK  279  A    between atoms: _682  and  _683
REMARK  280  A    between atoms: _686  and  _688
REMARK  281  A    between atoms: _688  and  _689
REMARK  282  A    between atoms: _688  and  _691
REMARK  283  A    between atoms: _691  and  _692
REMARK                            x       y       z     vdW  Elec       q    Type
REMARK                         _______ _______ _______ _____ _____    ______ ____
ROOT
ATOM      1  O   HOH     1      25.811  12.928   6.684  0.00  0.00    +0.000 OA
ENDROOT
TORSDOF 0
