REMARK  Name = ../refined-set-2016/1rp7/1rp7_pocket.pdb
REMARK  268 active torsions:
REMARK  status: ('A' for Active; 'I' for Inactive)
REMARK    1  A    between atoms: _1  and  _3
REMARK    2  A    between atoms: _3  and  _4
REMARK    3  A    between atoms: _7  and  _9
REMARK    4  A    between atoms: _9  and  _10
REMARK    5  A    between atoms: _9  and  _12
REMARK    6  A    between atoms: _12  and  _13
REMARK    7  A    between atoms: _16  and  _18
REMARK    8  A    between atoms: _18  and  _19
REMARK    9  A    between atoms: _18  and  _21
REMARK   10  A    between atoms: _21  and  _22
REMARK   11  A    between atoms: _22  and  _23
REMARK   12  A    between atoms: _26  and  _28
REMARK   13  A    between atoms: _28  and  _29
REMARK   14  A    between atoms: _28  and  _31
REMARK   15  A    between atoms: _31  and  _32
REMARK   16  A    between atoms: _35  and  _37
REMARK   17  A    between atoms: _37  and  _38
REMARK   18  A    between atoms: _40  and  _42
REMARK   19  A    between atoms: _42  and  _43
REMARK   20  A    between atoms: _42  and  _45
REMARK   21  A    between atoms: _45  and  _46
REMARK   22  A    between atoms: _49  and  _51
REMARK   23  A    between atoms: _51  and  _52
REMARK   24  A    between atoms: _51  and  _54
REMARK   25  A    between atoms: _54  and  _55
REMARK   26  A    between atoms: _60  and  _62
REMARK   27  A    between atoms: _62  and  _63
REMARK   28  A    between atoms: _62  and  _65
REMARK   29  A    between atoms: _65  and  _66
REMARK   30  A    between atoms: _66  and  _67
REMARK   31  A    between atoms: _70  and  _72
REMARK   32  A    between atoms: _72  and  _73
REMARK   33  A    between atoms: _72  and  _75
REMARK   34  A    between atoms: _75  and  _76
REMARK   35  A    between atoms: _79  and  _81
REMARK   36  A    between atoms: _81  and  _82
REMARK   37  A    between atoms: _81  and  _84
REMARK   38  A    between atoms: _84  and  _85
REMARK   39  A    between atoms: _90  and  _91
REMARK   40  A    between atoms: _93  and  _95
REMARK   41  A    between atoms: _95  and  _96
REMARK   42  A    between atoms: _95  and  _98
REMARK   43  A    between atoms: _98  and  _99
REMARK   44  A    between atoms: _104  and  _105
REMARK   45  A    between atoms: _107  and  _109
REMARK   46  A    between atoms: _109  and  _110
REMARK   47  A    between atoms: _109  and  _112
REMARK   48  A    between atoms: _112  and  _113
REMARK   49  A    between atoms: _118  and  _119
REMARK   50  A    between atoms: _121  and  _123
REMARK   51  A    between atoms: _123  and  _124
REMARK   52  A    between atoms: _123  and  _126
REMARK   53  A    between atoms: _126  and  _127
REMARK   54  A    between atoms: _127  and  _128
REMARK   55  A    between atoms: _130  and  _132
REMARK   56  A    between atoms: _132  and  _133
REMARK   57  A    between atoms: _132  and  _135
REMARK   58  A    between atoms: _135  and  _136
REMARK   59  A    between atoms: _142  and  _144
REMARK   60  A    between atoms: _144  and  _145
REMARK   61  A    between atoms: _144  and  _147
REMARK   62  A    between atoms: _147  and  _148
REMARK   63  A    between atoms: _148  and  _149
REMARK   64  A    between atoms: _149  and  _150
REMARK   65  A    between atoms: _159  and  _161
REMARK   66  A    between atoms: _161  and  _162
REMARK   67  A    between atoms: _161  and  _164
REMARK   68  A    between atoms: _164  and  _165
REMARK   69  A    between atoms: _165  and  _166
REMARK   70  A    between atoms: _169  and  _171
REMARK   71  A    between atoms: _171  and  _172
REMARK   72  A    between atoms: _171  and  _174
REMARK   73  A    between atoms: _174  and  _175
REMARK   74  A    between atoms: _175  and  _176
REMARK   75  A    between atoms: _181  and  _183
REMARK   76  A    between atoms: _183  and  _184
REMARK   77  A    between atoms: _183  and  _186
REMARK   78  A    between atoms: _186  and  _187
REMARK   79  A    between atoms: _192  and  _194
REMARK   80  A    between atoms: _194  and  _195
REMARK   81  A    between atoms: _194  and  _197
REMARK   82  A    between atoms: _197  and  _198
REMARK   83  A    between atoms: _203  and  _205
REMARK   84  A    between atoms: _205  and  _206
REMARK   85  A    between atoms: _205  and  _208
REMARK   86  A    between atoms: _208  and  _209
REMARK   87  A    between atoms: _209  and  _210
REMARK   88  A    between atoms: _212  and  _214
REMARK   89  A    between atoms: _214  and  _215
REMARK   90  A    between atoms: _218  and  _220
REMARK   91  A    between atoms: _220  and  _221
REMARK   92  A    between atoms: _220  and  _223
REMARK   93  A    between atoms: _223  and  _224
REMARK   94  A    between atoms: _226  and  _228
REMARK   95  A    between atoms: _228  and  _229
REMARK   96  A    between atoms: _228  and  _231
REMARK   97  A    between atoms: _231  and  _232
REMARK   98  A    between atoms: _238  and  _240
REMARK   99  A    between atoms: _240  and  _241
REMARK  100  A    between atoms: _240  and  _243
REMARK  101  A    between atoms: _243  and  _244
REMARK  102  A    between atoms: _244  and  _245
REMARK  103  A    between atoms: _250  and  _252
REMARK  104  A    between atoms: _252  and  _253
REMARK  105  A    between atoms: _252  and  _255
REMARK  106  A    between atoms: _255  and  _256
REMARK  107  A    between atoms: _258  and  _260
REMARK  108  A    between atoms: _260  and  _261
REMARK  109  A    between atoms: _260  and  _263
REMARK  110  A    between atoms: _263  and  _264
REMARK  111  A    between atoms: _266  and  _268
REMARK  112  A    between atoms: _268  and  _269
REMARK  113  A    between atoms: _268  and  _271
REMARK  114  A    between atoms: _271  and  _272
REMARK  115  A    between atoms: _277  and  _278
REMARK  116  A    between atoms: _280  and  _282
REMARK  117  A    between atoms: _282  and  _283
REMARK  118  A    between atoms: _282  and  _285
REMARK  119  A    between atoms: _285  and  _286
REMARK  120  A    between atoms: _286  and  _287
REMARK  121  A    between atoms: _292  and  _294
REMARK  122  A    between atoms: _294  and  _295
REMARK  123  A    between atoms: _297  and  _299
REMARK  124  A    between atoms: _299  and  _300
REMARK  125  A    between atoms: _299  and  _302
REMARK  126  A    between atoms: _302  and  _303
REMARK  127  A    between atoms: _308  and  _310
REMARK  128  A    between atoms: _310  and  _311
REMARK  129  A    between atoms: _310  and  _313
REMARK  130  A    between atoms: _313  and  _314
REMARK  131  A    between atoms: _317  and  _319
REMARK  132  A    between atoms: _319  and  _320
REMARK  133  A    between atoms: _319  and  _322
REMARK  134  A    between atoms: _322  and  _323
REMARK  135  A    between atoms: _323  and  _324
REMARK  136  A    between atoms: _324  and  _325
REMARK  137  A    between atoms: _334  and  _336
REMARK  138  A    between atoms: _336  and  _337
REMARK  139  A    between atoms: _336  and  _339
REMARK  140  A    between atoms: _339  and  _340
REMARK  141  A    between atoms: _345  and  _346
REMARK  142  A    between atoms: _348  and  _350
REMARK  143  A    between atoms: _350  and  _351
REMARK  144  A    between atoms: _350  and  _353
REMARK  145  A    between atoms: _353  and  _354
REMARK  146  A    between atoms: _357  and  _359
REMARK  147  A    between atoms: _359  and  _360
REMARK  148  A    between atoms: _359  and  _362
REMARK  149  A    between atoms: _365  and  _367
REMARK  150  A    between atoms: _367  and  _368
REMARK  151  A    between atoms: _367  and  _370
REMARK  152  A    between atoms: _370  and  _371
REMARK  153  A    between atoms: _373  and  _375
REMARK  154  A    between atoms: _375  and  _376
REMARK  155  A    between atoms: _375  and  _378
REMARK  156  A    between atoms: _378  and  _379
REMARK  157  A    between atoms: _379  and  _380
REMARK  158  A    between atoms: _382  and  _384
REMARK  159  A    between atoms: _384  and  _385
REMARK  160  A    between atoms: _387  and  _389
REMARK  161  A    between atoms: _389  and  _390
REMARK  162  A    between atoms: _389  and  _392
REMARK  163  A    between atoms: _392  and  _393
REMARK  164  A    between atoms: _396  and  _398
REMARK  165  A    between atoms: _398  and  _399
REMARK  166  A    between atoms: _398  and  _401
REMARK  167  A    between atoms: _401  and  _402
REMARK  168  A    between atoms: _408  and  _410
REMARK  169  A    between atoms: _410  and  _411
REMARK  170  A    between atoms: _410  and  _413
REMARK  171  A    between atoms: _413  and  _414
REMARK  172  A    between atoms: _417  and  _419
REMARK  173  A    between atoms: _419  and  _420
REMARK  174  A    between atoms: _422  and  _424
REMARK  175  A    between atoms: _424  and  _425
REMARK  176  A    between atoms: _424  and  _427
REMARK  177  A    between atoms: _427  and  _428
REMARK  178  A    between atoms: _431  and  _433
REMARK  179  A    between atoms: _433  and  _434
REMARK  180  A    between atoms: _436  and  _438
REMARK  181  A    between atoms: _438  and  _439
REMARK  182  A    between atoms: _438  and  _441
REMARK  183  A    between atoms: _441  and  _442
REMARK  184  A    between atoms: _442  and  _443
REMARK  185  A    between atoms: _446  and  _448
REMARK  186  A    between atoms: _448  and  _449
REMARK  187  A    between atoms: _448  and  _451
REMARK  188  A    between atoms: _451  and  _452
REMARK  189  A    between atoms: _452  and  _453
REMARK  190  A    between atoms: _455  and  _457
REMARK  191  A    between atoms: _457  and  _458
REMARK  192  A    between atoms: _457  and  _460
REMARK  193  A    between atoms: _460  and  _461
REMARK  194  A    between atoms: _464  and  _466
REMARK  195  A    between atoms: _466  and  _467
REMARK  196  A    between atoms: _466  and  _469
REMARK  197  A    between atoms: _469  and  _470
REMARK  198  A    between atoms: _470  and  _471
REMARK  199  A    between atoms: _474  and  _476
REMARK  200  A    between atoms: _476  and  _477
REMARK  201  A    between atoms: _476  and  _479
REMARK  202  A    between atoms: _479  and  _480
REMARK  203  A    between atoms: _480  and  _481
REMARK  204  A    between atoms: _484  and  _486
REMARK  205  A    between atoms: _486  and  _487
REMARK  206  A    between atoms: _486  and  _489
REMARK  207  A    between atoms: _489  and  _490
REMARK  208  A    between atoms: _492  and  _494
REMARK  209  A    between atoms: _494  and  _495
REMARK  210  A    between atoms: _494  and  _497
REMARK  211  A    between atoms: _497  and  _498
REMARK  212  A    between atoms: _501  and  _503
REMARK  213  A    between atoms: _503  and  _504
REMARK  214  A    between atoms: _503  and  _506
REMARK  215  A    between atoms: _506  and  _507
REMARK  216  A    between atoms: _512  and  _514
REMARK  217  A    between atoms: _514  and  _515
REMARK  218  A    between atoms: _514  and  _517
REMARK  219  A    between atoms: _519  and  _521
REMARK  220  A    between atoms: _525  and  _527
REMARK  221  A    between atoms: _532  and  _535
REMARK  222  A    between atoms: _535  and  _536
REMARK  223  A    between atoms: _541  and  _544
REMARK  224  A    between atoms: _542  and  _551
REMARK  225  A    between atoms: _544  and  _545
REMARK  226  A    between atoms: _545  and  _546
REMARK  227  A    between atoms: _551  and  _553
REMARK  228  A    between atoms: _553  and  _554
REMARK  229  A    between atoms: _553  and  _556
REMARK  230  A    between atoms: _556  and  _557
REMARK  231  A    between atoms: _557  and  _558
REMARK  232  A    between atoms: _558  and  _559
REMARK  233  A    between atoms: _568  and  _570
REMARK  234  A    between atoms: _570  and  _571
REMARK  235  A    between atoms: _570  and  _573
REMARK  236  A    between atoms: _573  and  _574
REMARK  237  A    between atoms: _577  and  _579
REMARK  238  A    between atoms: _579  and  _580
REMARK  239  A    between atoms: _579  and  _582
REMARK  240  A    between atoms: _582  and  _583
REMARK  241  A    between atoms: _586  and  _588
REMARK  242  A    between atoms: _588  and  _589
REMARK  243  A    between atoms: _592  and  _593
REMARK  244  A    between atoms: _598  and  _600
REMARK  245  A    between atoms: _600  and  _601
REMARK  246  A    between atoms: _600  and  _603
REMARK  247  A    between atoms: _606  and  _608
REMARK  248  A    between atoms: _608  and  _609
REMARK  249  A    between atoms: _608  and  _611
REMARK  250  A    between atoms: _611  and  _612
REMARK  251  A    between atoms: _612  and  _613
REMARK  252  A    between atoms: _618  and  _620
REMARK  253  A    between atoms: _620  and  _621
REMARK  254  A    between atoms: _620  and  _623
REMARK  255  A    between atoms: _623  and  _624
REMARK  256  A    between atoms: _627  and  _629
REMARK  257  A    between atoms: _629  and  _630
REMARK  258  A    between atoms: _629  and  _632
REMARK  259  A    between atoms: _632  and  _633
REMARK  260  A    between atoms: _633  and  _634
REMARK  261  A    between atoms: _634  and  _635
REMARK  262  A    between atoms: _635  and  _636
REMARK  263  A    between atoms: _640  and  _642
REMARK  264  A    between atoms: _642  and  _643
REMARK  265  A    between atoms: _645  and  _647
REMARK  266  A    between atoms: _647  and  _648
REMARK  267  A    between atoms: _647  and  _650
REMARK  268  A    between atoms: _650  and  _651
REMARK                            x       y       z     vdW  Elec       q    Type
REMARK                         _______ _______ _______ _____ _____    ______ ____
ROOT
ATOM      1  CA  ASP A   2      20.981 -31.149   5.849  0.00  0.00    +0.160 C 
ENDROOT
BRANCH   1   4
ATOM      2  C   ALA A   1      21.983 -32.880   4.434  0.00  0.00    +0.238 C 
ATOM      3  O   ALA A   1      23.027 -32.913   5.080  0.00  0.00    -0.274 OA
ATOM      4  N   ASP A   2      20.970 -32.077   4.727  0.00  0.00    -0.297 N 
ATOM      5  H   ASP A   2      20.123 -32.112   4.124  0.00  0.00    +0.150 HD
BRANCH   2   6
ATOM      6  CA  ALA A   1      21.781 -33.761   3.204  0.00  0.00    +0.145 C 
ATOM      7  CB  ALA A   1      22.808 -34.905   3.177  0.00  0.00    +0.028 C 
BRANCH   6   8
ATOM      8  N   ALA A   1      21.971 -32.879   2.060  0.00  0.00    -0.238 NA
ATOM      9  H   ALA A   1      22.891 -32.410   1.936  0.00  0.00    +0.142 HD
ENDBRANCH   6   8
ENDBRANCH   2   6
ENDBRANCH   1   4
BRANCH   1  10
ATOM     10  C   ASP A   2      21.791 -29.881   5.569  0.00  0.00    +0.241 C 
ATOM     11  N   GLU A   3      23.110 -30.019   5.464  0.00  0.00    -0.298 N 
ATOM     12  H   GLU A   3      23.507 -30.979   5.510  0.00  0.00    +0.150 HD
ATOM     13  O   ASP A   2      21.226 -28.791   5.418  0.00  0.00    -0.273 OA
BRANCH  11  14
ATOM     14  CA  GLU A   3      24.031 -28.904   5.288  0.00  0.00    +0.137 C 
BRANCH  14  15
ATOM     15  C   GLU A   3      23.874 -28.274   3.908  0.00  0.00    +0.227 C 
ATOM     16  O   GLU A   3      24.097 -28.877   2.868  0.00  0.00    -0.286 OA
ENDBRANCH  14  15
BRANCH  14  17
ATOM     17  CB  GLU A   3      25.475 -29.363   5.503  0.00  0.00    +0.039 C 
BRANCH  17  18
ATOM     18  CG  GLU A   3      25.842 -29.590   6.961  0.00  0.00    +0.116 C 
BRANCH  18  19
ATOM     19  CD  GLU A   3      26.187 -28.302   7.682  0.00  0.00    +0.365 C 
ATOM     20  OE2 GLU A   3      27.100 -28.325   8.534  0.00  0.00    -0.246 OA
ATOM     21  OE1 GLU A   3      25.545 -27.270   7.395  0.00  0.00    -0.246 OA
ENDBRANCH  18  19
ENDBRANCH  17  18
ENDBRANCH  14  17
ENDBRANCH  11  14
ENDBRANCH   1  10
BRANCH   1  22
ATOM     22  CB  ASP A   2      21.516 -31.820   7.118  0.00  0.00    +0.143 C 
BRANCH  22  23
ATOM     23  CG  ASP A   2      21.268 -30.981   8.364  0.00  0.00    +0.367 C 
ATOM     24  OD2 ASP A   2      21.791 -31.340   9.437  0.00  0.00    -0.246 OA
ATOM     25  OD1 ASP A   2      20.547 -29.957   8.269  0.00  0.00    -0.246 OA
ENDBRANCH  22  23
ENDBRANCH   1  22
TORSDOF 11
REMARK  Name = ../refined-set-2016/1rp7/1rp7_pocket.pdb
REMARK  268 active torsions:
REMARK  status: ('A' for Active; 'I' for Inactive)
REMARK    1  A    between atoms: _1  and  _3
REMARK    2  A    between atoms: _3  and  _4
REMARK    3  A    between atoms: _7  and  _9
REMARK    4  A    between atoms: _9  and  _10
REMARK    5  A    between atoms: _9  and  _12
REMARK    6  A    between atoms: _12  and  _13
REMARK    7  A    between atoms: _16  and  _18
REMARK    8  A    between atoms: _18  and  _19
REMARK    9  A    between atoms: _18  and  _21
REMARK   10  A    between atoms: _21  and  _22
REMARK   11  A    between atoms: _22  and  _23
REMARK   12  A    between atoms: _26  and  _28
REMARK   13  A    between atoms: _28  and  _29
REMARK   14  A    between atoms: _28  and  _31
REMARK   15  A    between atoms: _31  and  _32
REMARK   16  A    between atoms: _35  and  _37
REMARK   17  A    between atoms: _37  and  _38
REMARK   18  A    between atoms: _40  and  _42
REMARK   19  A    between atoms: _42  and  _43
REMARK   20  A    between atoms: _42  and  _45
REMARK   21  A    between atoms: _45  and  _46
REMARK   22  A    between atoms: _49  and  _51
REMARK   23  A    between atoms: _51  and  _52
REMARK   24  A    between atoms: _51  and  _54
REMARK   25  A    between atoms: _54  and  _55
REMARK   26  A    between atoms: _60  and  _62
REMARK   27  A    between atoms: _62  and  _63
REMARK   28  A    between atoms: _62  and  _65
REMARK   29  A    between atoms: _65  and  _66
REMARK   30  A    between atoms: _66  and  _67
REMARK   31  A    between atoms: _70  and  _72
REMARK   32  A    between atoms: _72  and  _73
REMARK   33  A    between atoms: _72  and  _75
REMARK   34  A    between atoms: _75  and  _76
REMARK   35  A    between atoms: _79  and  _81
REMARK   36  A    between atoms: _81  and  _82
REMARK   37  A    between atoms: _81  and  _84
REMARK   38  A    between atoms: _84  and  _85
REMARK   39  A    between atoms: _90  and  _91
REMARK   40  A    between atoms: _93  and  _95
REMARK   41  A    between atoms: _95  and  _96
REMARK   42  A    between atoms: _95  and  _98
REMARK   43  A    between atoms: _98  and  _99
REMARK   44  A    between atoms: _104  and  _105
REMARK   45  A    between atoms: _107  and  _109
REMARK   46  A    between atoms: _109  and  _110
REMARK   47  A    between atoms: _109  and  _112
REMARK   48  A    between atoms: _112  and  _113
REMARK   49  A    between atoms: _118  and  _119
REMARK   50  A    between atoms: _121  and  _123
REMARK   51  A    between atoms: _123  and  _124
REMARK   52  A    between atoms: _123  and  _126
REMARK   53  A    between atoms: _126  and  _127
REMARK   54  A    between atoms: _127  and  _128
REMARK   55  A    between atoms: _130  and  _132
REMARK   56  A    between atoms: _132  and  _133
REMARK   57  A    between atoms: _132  and  _135
REMARK   58  A    between atoms: _135  and  _136
REMARK   59  A    between atoms: _142  and  _144
REMARK   60  A    between atoms: _144  and  _145
REMARK   61  A    between atoms: _144  and  _147
REMARK   62  A    between atoms: _147  and  _148
REMARK   63  A    between atoms: _148  and  _149
REMARK   64  A    between atoms: _149  and  _150
REMARK   65  A    between atoms: _159  and  _161
REMARK   66  A    between atoms: _161  and  _162
REMARK   67  A    between atoms: _161  and  _164
REMARK   68  A    between atoms: _164  and  _165
REMARK   69  A    between atoms: _165  and  _166
REMARK   70  A    between atoms: _169  and  _171
REMARK   71  A    between atoms: _171  and  _172
REMARK   72  A    between atoms: _171  and  _174
REMARK   73  A    between atoms: _174  and  _175
REMARK   74  A    between atoms: _175  and  _176
REMARK   75  A    between atoms: _181  and  _183
REMARK   76  A    between atoms: _183  and  _184
REMARK   77  A    between atoms: _183  and  _186
REMARK   78  A    between atoms: _186  and  _187
REMARK   79  A    between atoms: _192  and  _194
REMARK   80  A    between atoms: _194  and  _195
REMARK   81  A    between atoms: _194  and  _197
REMARK   82  A    between atoms: _197  and  _198
REMARK   83  A    between atoms: _203  and  _205
REMARK   84  A    between atoms: _205  and  _206
REMARK   85  A    between atoms: _205  and  _208
REMARK   86  A    between atoms: _208  and  _209
REMARK   87  A    between atoms: _209  and  _210
REMARK   88  A    between atoms: _212  and  _214
REMARK   89  A    between atoms: _214  and  _215
REMARK   90  A    between atoms: _218  and  _220
REMARK   91  A    between atoms: _220  and  _221
REMARK   92  A    between atoms: _220  and  _223
REMARK   93  A    between atoms: _223  and  _224
REMARK   94  A    between atoms: _226  and  _228
REMARK   95  A    between atoms: _228  and  _229
REMARK   96  A    between atoms: _228  and  _231
REMARK   97  A    between atoms: _231  and  _232
REMARK   98  A    between atoms: _238  and  _240
REMARK   99  A    between atoms: _240  and  _241
REMARK  100  A    between atoms: _240  and  _243
REMARK  101  A    between atoms: _243  and  _244
REMARK  102  A    between atoms: _244  and  _245
REMARK  103  A    between atoms: _250  and  _252
REMARK  104  A    between atoms: _252  and  _253
REMARK  105  A    between atoms: _252  and  _255
REMARK  106  A    between atoms: _255  and  _256
REMARK  107  A    between atoms: _258  and  _260
REMARK  108  A    between atoms: _260  and  _261
REMARK  109  A    between atoms: _260  and  _263
REMARK  110  A    between atoms: _263  and  _264
REMARK  111  A    between atoms: _266  and  _268
REMARK  112  A    between atoms: _268  and  _269
REMARK  113  A    between atoms: _268  and  _271
REMARK  114  A    between atoms: _271  and  _272
REMARK  115  A    between atoms: _277  and  _278
REMARK  116  A    between atoms: _280  and  _282
REMARK  117  A    between atoms: _282  and  _283
REMARK  118  A    between atoms: _282  and  _285
REMARK  119  A    between atoms: _285  and  _286
REMARK  120  A    between atoms: _286  and  _287
REMARK  121  A    between atoms: _292  and  _294
REMARK  122  A    between atoms: _294  and  _295
REMARK  123  A    between atoms: _297  and  _299
REMARK  124  A    between atoms: _299  and  _300
REMARK  125  A    between atoms: _299  and  _302
REMARK  126  A    between atoms: _302  and  _303
REMARK  127  A    between atoms: _308  and  _310
REMARK  128  A    between atoms: _310  and  _311
REMARK  129  A    between atoms: _310  and  _313
REMARK  130  A    between atoms: _313  and  _314
REMARK  131  A    between atoms: _317  and  _319
REMARK  132  A    between atoms: _319  and  _320
REMARK  133  A    between atoms: _319  and  _322
REMARK  134  A    between atoms: _322  and  _323
REMARK  135  A    between atoms: _323  and  _324
REMARK  136  A    between atoms: _324  and  _325
REMARK  137  A    between atoms: _334  and  _336
REMARK  138  A    between atoms: _336  and  _337
REMARK  139  A    between atoms: _336  and  _339
REMARK  140  A    between atoms: _339  and  _340
REMARK  141  A    between atoms: _345  and  _346
REMARK  142  A    between atoms: _348  and  _350
REMARK  143  A    between atoms: _350  and  _351
REMARK  144  A    between atoms: _350  and  _353
REMARK  145  A    between atoms: _353  and  _354
REMARK  146  A    between atoms: _357  and  _359
REMARK  147  A    between atoms: _359  and  _360
REMARK  148  A    between atoms: _359  and  _362
REMARK  149  A    between atoms: _365  and  _367
REMARK  150  A    between atoms: _367  and  _368
REMARK  151  A    between atoms: _367  and  _370
REMARK  152  A    between atoms: _370  and  _371
REMARK  153  A    between atoms: _373  and  _375
REMARK  154  A    between atoms: _375  and  _376
REMARK  155  A    between atoms: _375  and  _378
REMARK  156  A    between atoms: _378  and  _379
REMARK  157  A    between atoms: _379  and  _380
REMARK  158  A    between atoms: _382  and  _384
REMARK  159  A    between atoms: _384  and  _385
REMARK  160  A    between atoms: _387  and  _389
REMARK  161  A    between atoms: _389  and  _390
REMARK  162  A    between atoms: _389  and  _392
REMARK  163  A    between atoms: _392  and  _393
REMARK  164  A    between atoms: _396  and  _398
REMARK  165  A    between atoms: _398  and  _399
REMARK  166  A    between atoms: _398  and  _401
REMARK  167  A    between atoms: _401  and  _402
REMARK  168  A    between atoms: _408  and  _410
REMARK  169  A    between atoms: _410  and  _411
REMARK  170  A    between atoms: _410  and  _413
REMARK  171  A    between atoms: _413  and  _414
REMARK  172  A    between atoms: _417  and  _419
REMARK  173  A    between atoms: _419  and  _420
REMARK  174  A    between atoms: _422  and  _424
REMARK  175  A    between atoms: _424  and  _425
REMARK  176  A    between atoms: _424  and  _427
REMARK  177  A    between atoms: _427  and  _428
REMARK  178  A    between atoms: _431  and  _433
REMARK  179  A    between atoms: _433  and  _434
REMARK  180  A    between atoms: _436  and  _438
REMARK  181  A    between atoms: _438  and  _439
REMARK  182  A    between atoms: _438  and  _441
REMARK  183  A    between atoms: _441  and  _442
REMARK  184  A    between atoms: _442  and  _443
REMARK  185  A    between atoms: _446  and  _448
REMARK  186  A    between atoms: _448  and  _449
REMARK  187  A    between atoms: _448  and  _451
REMARK  188  A    between atoms: _451  and  _452
REMARK  189  A    between atoms: _452  and  _453
REMARK  190  A    between atoms: _455  and  _457
REMARK  191  A    between atoms: _457  and  _458
REMARK  192  A    between atoms: _457  and  _460
REMARK  193  A    between atoms: _460  and  _461
REMARK  194  A    between atoms: _464  and  _466
REMARK  195  A    between atoms: _466  and  _467
REMARK  196  A    between atoms: _466  and  _469
REMARK  197  A    between atoms: _469  and  _470
REMARK  198  A    between atoms: _470  and  _471
REMARK  199  A    between atoms: _474  and  _476
REMARK  200  A    between atoms: _476  and  _477
REMARK  201  A    between atoms: _476  and  _479
REMARK  202  A    between atoms: _479  and  _480
REMARK  203  A    between atoms: _480  and  _481
REMARK  204  A    between atoms: _484  and  _486
REMARK  205  A    between atoms: _486  and  _487
REMARK  206  A    between atoms: _486  and  _489
REMARK  207  A    between atoms: _489  and  _490
REMARK  208  A    between atoms: _492  and  _494
REMARK  209  A    between atoms: _494  and  _495
REMARK  210  A    between atoms: _494  and  _497
REMARK  211  A    between atoms: _497  and  _498
REMARK  212  A    between atoms: _501  and  _503
REMARK  213  A    between atoms: _503  and  _504
REMARK  214  A    between atoms: _503  and  _506
REMARK  215  A    between atoms: _506  and  _507
REMARK  216  A    between atoms: _512  and  _514
REMARK  217  A    between atoms: _514  and  _515
REMARK  218  A    between atoms: _514  and  _517
REMARK  219  A    between atoms: _519  and  _521
REMARK  220  A    between atoms: _525  and  _527
REMARK  221  A    between atoms: _532  and  _535
REMARK  222  A    between atoms: _535  and  _536
REMARK  223  A    between atoms: _541  and  _544
REMARK  224  A    between atoms: _542  and  _551
REMARK  225  A    between atoms: _544  and  _545
REMARK  226  A    between atoms: _545  and  _546
REMARK  227  A    between atoms: _551  and  _553
REMARK  228  A    between atoms: _553  and  _554
REMARK  229  A    between atoms: _553  and  _556
REMARK  230  A    between atoms: _556  and  _557
REMARK  231  A    between atoms: _557  and  _558
REMARK  232  A    between atoms: _558  and  _559
REMARK  233  A    between atoms: _568  and  _570
REMARK  234  A    between atoms: _570  and  _571
REMARK  235  A    between atoms: _570  and  _573
REMARK  236  A    between atoms: _573  and  _574
REMARK  237  A    between atoms: _577  and  _579
REMARK  238  A    between atoms: _579  and  _580
REMARK  239  A    between atoms: _579  and  _582
REMARK  240  A    between atoms: _582  and  _583
REMARK  241  A    between atoms: _586  and  _588
REMARK  242  A    between atoms: _588  and  _589
REMARK  243  A    between atoms: _592  and  _593
REMARK  244  A    between atoms: _598  and  _600
REMARK  245  A    between atoms: _600  and  _601
REMARK  246  A    between atoms: _600  and  _603
REMARK  247  A    between atoms: _606  and  _608
REMARK  248  A    between atoms: _608  and  _609
REMARK  249  A    between atoms: _608  and  _611
REMARK  250  A    between atoms: _611  and  _612
REMARK  251  A    between atoms: _612  and  _613
REMARK  252  A    between atoms: _618  and  _620
REMARK  253  A    between atoms: _620  and  _621
REMARK  254  A    between atoms: _620  and  _623
REMARK  255  A    between atoms: _623  and  _624
REMARK  256  A    between atoms: _627  and  _629
REMARK  257  A    between atoms: _629  and  _630
REMARK  258  A    between atoms: _629  and  _632
REMARK  259  A    between atoms: _632  and  _633
REMARK  260  A    between atoms: _633  and  _634
REMARK  261  A    between atoms: _634  and  _635
REMARK  262  A    between atoms: _635  and  _636
REMARK  263  A    between atoms: _640  and  _642
REMARK  264  A    between atoms: _642  and  _643
REMARK  265  A    between atoms: _645  and  _647
REMARK  266  A    between atoms: _647  and  _648
REMARK  267  A    between atoms: _647  and  _650
REMARK  268  A    between atoms: _650  and  _651
REMARK                            x       y       z     vdW  Elec       q    Type
REMARK                         _______ _______ _______ _____ _____    ______ ____
ROOT
ATOM      1  CA  THR A   1      28.497 -24.882   4.437  0.00  0.00    +0.160 C 
ENDROOT
BRANCH   1   2
ATOM      2  N   THR A   1      27.089 -24.584   4.651  0.00  0.00    -0.237 NA
ATOM      3  H   THR A   1      26.483 -25.287   5.120  0.00  0.00    +0.142 HD
ENDBRANCH   1   2
BRANCH   1   4
ATOM      4  CB  THR A   1      28.863 -26.299   4.939  0.00  0.00    +0.134 C 
ATOM      5  CG2 THR A   1      30.369 -26.427   5.112  0.00  0.00    +0.034 C 
BRANCH   4   6
ATOM      6  OG1 THR A   1      28.227 -26.545   6.198  0.00  0.00    -0.383 OA
ATOM      7  HG1 THR A   1      27.245 -26.479   6.089  0.00  0.00    +0.210 HD
ENDBRANCH   4   6
ENDBRANCH   1   4
BRANCH   1   8
ATOM      8  C   THR A   1      28.849 -24.802   2.963  0.00  0.00    +0.227 C 
ATOM      9  O   THR A   1      29.958 -24.422   2.599  0.00  0.00    -0.287 OA
ENDBRANCH   1   8
TORSDOF 4
REMARK  Name = ../refined-set-2016/1rp7/1rp7_pocket.pdb
REMARK  268 active torsions:
REMARK  status: ('A' for Active; 'I' for Inactive)
REMARK    1  A    between atoms: _1  and  _3
REMARK    2  A    between atoms: _3  and  _4
REMARK    3  A    between atoms: _7  and  _9
REMARK    4  A    between atoms: _9  and  _10
REMARK    5  A    between atoms: _9  and  _12
REMARK    6  A    between atoms: _12  and  _13
REMARK    7  A    between atoms: _16  and  _18
REMARK    8  A    between atoms: _18  and  _19
REMARK    9  A    between atoms: _18  and  _21
REMARK   10  A    between atoms: _21  and  _22
REMARK   11  A    between atoms: _22  and  _23
REMARK   12  A    between atoms: _26  and  _28
REMARK   13  A    between atoms: _28  and  _29
REMARK   14  A    between atoms: _28  and  _31
REMARK   15  A    between atoms: _31  and  _32
REMARK   16  A    between atoms: _35  and  _37
REMARK   17  A    between atoms: _37  and  _38
REMARK   18  A    between atoms: _40  and  _42
REMARK   19  A    between atoms: _42  and  _43
REMARK   20  A    between atoms: _42  and  _45
REMARK   21  A    between atoms: _45  and  _46
REMARK   22  A    between atoms: _49  and  _51
REMARK   23  A    between atoms: _51  and  _52
REMARK   24  A    between atoms: _51  and  _54
REMARK   25  A    between atoms: _54  and  _55
REMARK   26  A    between atoms: _60  and  _62
REMARK   27  A    between atoms: _62  and  _63
REMARK   28  A    between atoms: _62  and  _65
REMARK   29  A    between atoms: _65  and  _66
REMARK   30  A    between atoms: _66  and  _67
REMARK   31  A    between atoms: _70  and  _72
REMARK   32  A    between atoms: _72  and  _73
REMARK   33  A    between atoms: _72  and  _75
REMARK   34  A    between atoms: _75  and  _76
REMARK   35  A    between atoms: _79  and  _81
REMARK   36  A    between atoms: _81  and  _82
REMARK   37  A    between atoms: _81  and  _84
REMARK   38  A    between atoms: _84  and  _85
REMARK   39  A    between atoms: _90  and  _91
REMARK   40  A    between atoms: _93  and  _95
REMARK   41  A    between atoms: _95  and  _96
REMARK   42  A    between atoms: _95  and  _98
REMARK   43  A    between atoms: _98  and  _99
REMARK   44  A    between atoms: _104  and  _105
REMARK   45  A    between atoms: _107  and  _109
REMARK   46  A    between atoms: _109  and  _110
REMARK   47  A    between atoms: _109  and  _112
REMARK   48  A    between atoms: _112  and  _113
REMARK   49  A    between atoms: _118  and  _119
REMARK   50  A    between atoms: _121  and  _123
REMARK   51  A    between atoms: _123  and  _124
REMARK   52  A    between atoms: _123  and  _126
REMARK   53  A    between atoms: _126  and  _127
REMARK   54  A    between atoms: _127  and  _128
REMARK   55  A    between atoms: _130  and  _132
REMARK   56  A    between atoms: _132  and  _133
REMARK   57  A    between atoms: _132  and  _135
REMARK   58  A    between atoms: _135  and  _136
REMARK   59  A    between atoms: _142  and  _144
REMARK   60  A    between atoms: _144  and  _145
REMARK   61  A    between atoms: _144  and  _147
REMARK   62  A    between atoms: _147  and  _148
REMARK   63  A    between atoms: _148  and  _149
REMARK   64  A    between atoms: _149  and  _150
REMARK   65  A    between atoms: _159  and  _161
REMARK   66  A    between atoms: _161  and  _162
REMARK   67  A    between atoms: _161  and  _164
REMARK   68  A    between atoms: _164  and  _165
REMARK   69  A    between atoms: _165  and  _166
REMARK   70  A    between atoms: _169  and  _171
REMARK   71  A    between atoms: _171  and  _172
REMARK   72  A    between atoms: _171  and  _174
REMARK   73  A    between atoms: _174  and  _175
REMARK   74  A    between atoms: _175  and  _176
REMARK   75  A    between atoms: _181  and  _183
REMARK   76  A    between atoms: _183  and  _184
REMARK   77  A    between atoms: _183  and  _186
REMARK   78  A    between atoms: _186  and  _187
REMARK   79  A    between atoms: _192  and  _194
REMARK   80  A    between atoms: _194  and  _195
REMARK   81  A    between atoms: _194  and  _197
REMARK   82  A    between atoms: _197  and  _198
REMARK   83  A    between atoms: _203  and  _205
REMARK   84  A    between atoms: _205  and  _206
REMARK   85  A    between atoms: _205  and  _208
REMARK   86  A    between atoms: _208  and  _209
REMARK   87  A    between atoms: _209  and  _210
REMARK   88  A    between atoms: _212  and  _214
REMARK   89  A    between atoms: _214  and  _215
REMARK   90  A    between atoms: _218  and  _220
REMARK   91  A    between atoms: _220  and  _221
REMARK   92  A    between atoms: _220  and  _223
REMARK   93  A    between atoms: _223  and  _224
REMARK   94  A    between atoms: _226  and  _228
REMARK   95  A    between atoms: _228  and  _229
REMARK   96  A    between atoms: _228  and  _231
REMARK   97  A    between atoms: _231  and  _232
REMARK   98  A    between atoms: _238  and  _240
REMARK   99  A    between atoms: _240  and  _241
REMARK  100  A    between atoms: _240  and  _243
REMARK  101  A    between atoms: _243  and  _244
REMARK  102  A    between atoms: _244  and  _245
REMARK  103  A    between atoms: _250  and  _252
REMARK  104  A    between atoms: _252  and  _253
REMARK  105  A    between atoms: _252  and  _255
REMARK  106  A    between atoms: _255  and  _256
REMARK  107  A    between atoms: _258  and  _260
REMARK  108  A    between atoms: _260  and  _261
REMARK  109  A    between atoms: _260  and  _263
REMARK  110  A    between atoms: _263  and  _264
REMARK  111  A    between atoms: _266  and  _268
REMARK  112  A    between atoms: _268  and  _269
REMARK  113  A    between atoms: _268  and  _271
REMARK  114  A    between atoms: _271  and  _272
REMARK  115  A    between atoms: _277  and  _278
REMARK  116  A    between atoms: _280  and  _282
REMARK  117  A    between atoms: _282  and  _283
REMARK  118  A    between atoms: _282  and  _285
REMARK  119  A    between atoms: _285  and  _286
REMARK  120  A    between atoms: _286  and  _287
REMARK  121  A    between atoms: _292  and  _294
REMARK  122  A    between atoms: _294  and  _295
REMARK  123  A    between atoms: _297  and  _299
REMARK  124  A    between atoms: _299  and  _300
REMARK  125  A    between atoms: _299  and  _302
REMARK  126  A    between atoms: _302  and  _303
REMARK  127  A    between atoms: _308  and  _310
REMARK  128  A    between atoms: _310  and  _311
REMARK  129  A    between atoms: _310  and  _313
REMARK  130  A    between atoms: _313  and  _314
REMARK  131  A    between atoms: _317  and  _319
REMARK  132  A    between atoms: _319  and  _320
REMARK  133  A    between atoms: _319  and  _322
REMARK  134  A    between atoms: _322  and  _323
REMARK  135  A    between atoms: _323  and  _324
REMARK  136  A    between atoms: _324  and  _325
REMARK  137  A    between atoms: _334  and  _336
REMARK  138  A    between atoms: _336  and  _337
REMARK  139  A    between atoms: _336  and  _339
REMARK  140  A    between atoms: _339  and  _340
REMARK  141  A    between atoms: _345  and  _346
REMARK  142  A    between atoms: _348  and  _350
REMARK  143  A    between atoms: _350  and  _351
REMARK  144  A    between atoms: _350  and  _353
REMARK  145  A    between atoms: _353  and  _354
REMARK  146  A    between atoms: _357  and  _359
REMARK  147  A    between atoms: _359  and  _360
REMARK  148  A    between atoms: _359  and  _362
REMARK  149  A    between atoms: _365  and  _367
REMARK  150  A    between atoms: _367  and  _368
REMARK  151  A    between atoms: _367  and  _370
REMARK  152  A    between atoms: _370  and  _371
REMARK  153  A    between atoms: _373  and  _375
REMARK  154  A    between atoms: _375  and  _376
REMARK  155  A    between atoms: _375  and  _378
REMARK  156  A    between atoms: _378  and  _379
REMARK  157  A    between atoms: _379  and  _380
REMARK  158  A    between atoms: _382  and  _384
REMARK  159  A    between atoms: _384  and  _385
REMARK  160  A    between atoms: _387  and  _389
REMARK  161  A    between atoms: _389  and  _390
REMARK  162  A    between atoms: _389  and  _392
REMARK  163  A    between atoms: _392  and  _393
REMARK  164  A    between atoms: _396  and  _398
REMARK  165  A    between atoms: _398  and  _399
REMARK  166  A    between atoms: _398  and  _401
REMARK  167  A    between atoms: _401  and  _402
REMARK  168  A    between atoms: _408  and  _410
REMARK  169  A    between atoms: _410  and  _411
REMARK  170  A    between atoms: _410  and  _413
REMARK  171  A    between atoms: _413  and  _414
REMARK  172  A    between atoms: _417  and  _419
REMARK  173  A    between atoms: _419  and  _420
REMARK  174  A    between atoms: _422  and  _424
REMARK  175  A    between atoms: _424  and  _425
REMARK  176  A    between atoms: _424  and  _427
REMARK  177  A    between atoms: _427  and  _428
REMARK  178  A    between atoms: _431  and  _433
REMARK  179  A    between atoms: _433  and  _434
REMARK  180  A    between atoms: _436  and  _438
REMARK  181  A    between atoms: _438  and  _439
REMARK  182  A    between atoms: _438  and  _441
REMARK  183  A    between atoms: _441  and  _442
REMARK  184  A    between atoms: _442  and  _443
REMARK  185  A    between atoms: _446  and  _448
REMARK  186  A    between atoms: _448  and  _449
REMARK  187  A    between atoms: _448  and  _451
REMARK  188  A    between atoms: _451  and  _452
REMARK  189  A    between atoms: _452  and  _453
REMARK  190  A    between atoms: _455  and  _457
REMARK  191  A    between atoms: _457  and  _458
REMARK  192  A    between atoms: _457  and  _460
REMARK  193  A    between atoms: _460  and  _461
REMARK  194  A    between atoms: _464  and  _466
REMARK  195  A    between atoms: _466  and  _467
REMARK  196  A    between atoms: _466  and  _469
REMARK  197  A    between atoms: _469  and  _470
REMARK  198  A    between atoms: _470  and  _471
REMARK  199  A    between atoms: _474  and  _476
REMARK  200  A    between atoms: _476  and  _477
REMARK  201  A    between atoms: _476  and  _479
REMARK  202  A    between atoms: _479  and  _480
REMARK  203  A    between atoms: _480  and  _481
REMARK  204  A    between atoms: _484  and  _486
REMARK  205  A    between atoms: _486  and  _487
REMARK  206  A    between atoms: _486  and  _489
REMARK  207  A    between atoms: _489  and  _490
REMARK  208  A    between atoms: _492  and  _494
REMARK  209  A    between atoms: _494  and  _495
REMARK  210  A    between atoms: _494  and  _497
REMARK  211  A    between atoms: _497  and  _498
REMARK  212  A    between atoms: _501  and  _503
REMARK  213  A    between atoms: _503  and  _504
REMARK  214  A    between atoms: _503  and  _506
REMARK  215  A    between atoms: _506  and  _507
REMARK  216  A    between atoms: _512  and  _514
REMARK  217  A    between atoms: _514  and  _515
REMARK  218  A    between atoms: _514  and  _517
REMARK  219  A    between atoms: _519  and  _521
REMARK  220  A    between atoms: _525  and  _527
REMARK  221  A    between atoms: _532  and  _535
REMARK  222  A    between atoms: _535  and  _536
REMARK  223  A    between atoms: _541  and  _544
REMARK  224  A    between atoms: _542  and  _551
REMARK  225  A    between atoms: _544  and  _545
REMARK  226  A    between atoms: _545  and  _546
REMARK  227  A    between atoms: _551  and  _553
REMARK  228  A    between atoms: _553  and  _554
REMARK  229  A    between atoms: _553  and  _556
REMARK  230  A    between atoms: _556  and  _557
REMARK  231  A    between atoms: _557  and  _558
REMARK  232  A    between atoms: _558  and  _559
REMARK  233  A    between atoms: _568  and  _570
REMARK  234  A    between atoms: _570  and  _571
REMARK  235  A    between atoms: _570  and  _573
REMARK  236  A    between atoms: _573  and  _574
REMARK  237  A    between atoms: _577  and  _579
REMARK  238  A    between atoms: _579  and  _580
REMARK  239  A    between atoms: _579  and  _582
REMARK  240  A    between atoms: _582  and  _583
REMARK  241  A    between atoms: _586  and  _588
REMARK  242  A    between atoms: _588  and  _589
REMARK  243  A    between atoms: _592  and  _593
REMARK  244  A    between atoms: _598  and  _600
REMARK  245  A    between atoms: _600  and  _601
REMARK  246  A    between atoms: _600  and  _603
REMARK  247  A    between atoms: _606  and  _608
REMARK  248  A    between atoms: _608  and  _609
REMARK  249  A    between atoms: _608  and  _611
REMARK  250  A    between atoms: _611  and  _612
REMARK  251  A    between atoms: _612  and  _613
REMARK  252  A    between atoms: _618  and  _620
REMARK  253  A    between atoms: _620  and  _621
REMARK  254  A    between atoms: _620  and  _623
REMARK  255  A    between atoms: _623  and  _624
REMARK  256  A    between atoms: _627  and  _629
REMARK  257  A    between atoms: _629  and  _630
REMARK  258  A    between atoms: _629  and  _632
REMARK  259  A    between atoms: _632  and  _633
REMARK  260  A    between atoms: _633  and  _634
REMARK  261  A    between atoms: _634  and  _635
REMARK  262  A    between atoms: _635  and  _636
REMARK  263  A    between atoms: _640  and  _642
REMARK  264  A    between atoms: _642  and  _643
REMARK  265  A    between atoms: _645  and  _647
REMARK  266  A    between atoms: _647  and  _648
REMARK  267  A    between atoms: _647  and  _650
REMARK  268  A    between atoms: _650  and  _651
REMARK                            x       y       z     vdW  Elec       q    Type
REMARK                         _______ _______ _______ _____ _____    ______ ____
ROOT
ATOM      1  CA  ASN A   3      20.855 -39.246   5.486  0.00  0.00    +0.158 C 
ENDROOT
BRANCH   1   4
ATOM      2  C   ILE A   2      21.029 -37.754   7.418  0.00  0.00    +0.241 C 
ATOM      3  O   ILE A   2      20.706 -38.627   8.224  0.00  0.00    -0.273 OA
ATOM      4  N   ASN A   3      21.156 -37.965   6.112  0.00  0.00    -0.297 N 
ATOM      5  H   ASN A   3      21.484 -37.182   5.511  0.00  0.00    +0.150 HD
BRANCH   2   6
ATOM      6  CA  ILE A   2      21.320 -36.329   7.871  0.00  0.00    +0.148 C 
BRANCH   6   8
ATOM      7  C   GLY A   1      19.760 -35.149   6.389  0.00  0.00    +0.240 C 
ATOM      8  N   ILE A   2      20.109 -35.554   7.608  0.00  0.00    -0.297 N 
ATOM      9  H   ILE A   2      19.493 -35.308   8.409  0.00  0.00    +0.150 HD
ATOM     10  O   GLY A   1      20.426 -35.385   5.388  0.00  0.00    -0.274 OA
BRANCH   7  11
ATOM     11  CA  GLY A   1      18.473 -34.354   6.280  0.00  0.00    +0.169 C 
BRANCH  11  12
ATOM     12  N   GLY A   1      18.011 -34.247   4.908  0.00  0.00    -0.236 NA
ATOM     13  H   GLY A   1      17.992 -33.324   4.428  0.00  0.00    +0.142 HD
ENDBRANCH  11  12
ENDBRANCH   7  11
ENDBRANCH   6   8
BRANCH   6  14
ATOM     14  CB  ILE A   2      21.665 -36.315   9.383  0.00  0.00    +0.027 C 
ATOM     15  CG2 ILE A   2      23.143 -36.656   9.600  0.00  0.00    +0.002 C 
BRANCH  14  16
ATOM     16  CG1 ILE A   2      21.362 -34.927   9.960  0.00  0.00    +0.002 C 
ATOM     17  CD1 ILE A   2      21.831 -34.734  11.379  0.00  0.00    +0.000 C 
ENDBRANCH  14  16
ENDBRANCH   6  14
ENDBRANCH   2   6
ENDBRANCH   1   4
BRANCH   1  18
ATOM     18  C   ASN A   3      21.546 -39.300   4.132  0.00  0.00    +0.241 C 
ATOM     19  N   GLU A   4      22.838 -39.624   4.123  0.00  0.00    -0.297 N 
ATOM     20  H   GLU A   4      23.315 -39.828   5.024  0.00  0.00    +0.150 HD
ATOM     21  O   ASN A   3      20.914 -39.044   3.113  0.00  0.00    -0.273 OA
BRANCH  19  22
ATOM     22  CA  GLU A   4      23.605 -39.701   2.877  0.00  0.00    +0.149 C 
BRANCH  22  23
ATOM     23  C   GLU A   4      23.098 -40.788   1.937  0.00  0.00    +0.241 C 
ATOM     24  N   LEU A   5      22.633 -41.892   2.505  0.00  0.00    -0.298 N 
ATOM     25  H   LEU A   5      22.632 -41.977   3.542  0.00  0.00    +0.150 HD
ATOM     26  O   GLU A   4      23.140 -40.634   0.716  0.00  0.00    -0.273 OA
BRANCH  24  27
ATOM     27  CA  LEU A   5      22.123 -42.987   1.691  0.00  0.00    +0.137 C 
BRANCH  27  28
ATOM     28  C   LEU A   5      20.834 -42.553   1.019  0.00  0.00    +0.227 C 
ATOM     29  O   LEU A   5      20.667 -42.721  -0.183  0.00  0.00    -0.286 OA
ENDBRANCH  27  28
BRANCH  27  30
ATOM     30  CB  LEU A   5      21.867 -44.221   2.559  0.00  0.00    +0.028 C 
BRANCH  30  31
ATOM     31  CG  LEU A   5      22.311 -45.596   2.039  0.00  0.00    +0.002 C 
ATOM     32  CD2 LEU A   5      21.532 -46.665   2.772  0.00  0.00    +0.000 C 
ATOM     33  CD1 LEU A   5      22.079 -45.724   0.551  0.00  0.00    +0.000 C 
ENDBRANCH  30  31
ENDBRANCH  27  30
ENDBRANCH  24  27
ENDBRANCH  22  23
BRANCH  22  34
ATOM     34  CB  GLU A   4      25.082 -39.958   3.173  0.00  0.00    +0.041 C 
BRANCH  34  35
ATOM     35  CG  GLU A   4      25.835 -38.728   3.558  0.00  0.00    +0.116 C 
BRANCH  35  36
ATOM     36  CD  GLU A   4      25.570 -38.341   4.980  0.00  0.00    +0.365 C 
ATOM     37  OE2 GLU A   4      25.045 -39.183   5.734  0.00  0.00    -0.246 OA
ATOM     38  OE1 GLU A   4      25.888 -37.195   5.345  0.00  0.00    -0.246 OA
ENDBRANCH  35  36
ENDBRANCH  34  35
ENDBRANCH  22  34
ENDBRANCH  19  22
ENDBRANCH   1  18
BRANCH   1  39
ATOM     39  CB  ASN A   3      19.336 -39.341   5.297  0.00  0.00    +0.114 C 
BRANCH  39  40
ATOM     40  CG  ASN A   3      18.883 -40.678   4.780  0.00  0.00    +0.222 C 
ATOM     41  ND2 ASN A   3      17.575 -40.820   4.615  0.00  0.00    -0.329 N 
ATOM     42 HD21 ASN A   3      16.934 -40.033   4.841  0.00  0.00    +0.145 HD
ATOM     43 HD22 ASN A   3      17.190 -41.718   4.259  0.00  0.00    +0.145 HD
ATOM     44  OD1 ASN A   3      19.682 -41.570   4.530  0.00  0.00    -0.275 OA
ENDBRANCH  39  40
ENDBRANCH   1  39
TORSDOF 19
REMARK  Name = ../refined-set-2016/1rp7/1rp7_pocket.pdb
REMARK  268 active torsions:
REMARK  status: ('A' for Active; 'I' for Inactive)
REMARK    1  A    between atoms: _1  and  _3
REMARK    2  A    between atoms: _3  and  _4
REMARK    3  A    between atoms: _7  and  _9
REMARK    4  A    between atoms: _9  and  _10
REMARK    5  A    between atoms: _9  and  _12
REMARK    6  A    between atoms: _12  and  _13
REMARK    7  A    between atoms: _16  and  _18
REMARK    8  A    between atoms: _18  and  _19
REMARK    9  A    between atoms: _18  and  _21
REMARK   10  A    between atoms: _21  and  _22
REMARK   11  A    between atoms: _22  and  _23
REMARK   12  A    between atoms: _26  and  _28
REMARK   13  A    between atoms: _28  and  _29
REMARK   14  A    between atoms: _28  and  _31
REMARK   15  A    between atoms: _31  and  _32
REMARK   16  A    between atoms: _35  and  _37
REMARK   17  A    between atoms: _37  and  _38
REMARK   18  A    between atoms: _40  and  _42
REMARK   19  A    between atoms: _42  and  _43
REMARK   20  A    between atoms: _42  and  _45
REMARK   21  A    between atoms: _45  and  _46
REMARK   22  A    between atoms: _49  and  _51
REMARK   23  A    between atoms: _51  and  _52
REMARK   24  A    between atoms: _51  and  _54
REMARK   25  A    between atoms: _54  and  _55
REMARK   26  A    between atoms: _60  and  _62
REMARK   27  A    between atoms: _62  and  _63
REMARK   28  A    between atoms: _62  and  _65
REMARK   29  A    between atoms: _65  and  _66
REMARK   30  A    between atoms: _66  and  _67
REMARK   31  A    between atoms: _70  and  _72
REMARK   32  A    between atoms: _72  and  _73
REMARK   33  A    between atoms: _72  and  _75
REMARK   34  A    between atoms: _75  and  _76
REMARK   35  A    between atoms: _79  and  _81
REMARK   36  A    between atoms: _81  and  _82
REMARK   37  A    between atoms: _81  and  _84
REMARK   38  A    between atoms: _84  and  _85
REMARK   39  A    between atoms: _90  and  _91
REMARK   40  A    between atoms: _93  and  _95
REMARK   41  A    between atoms: _95  and  _96
REMARK   42  A    between atoms: _95  and  _98
REMARK   43  A    between atoms: _98  and  _99
REMARK   44  A    between atoms: _104  and  _105
REMARK   45  A    between atoms: _107  and  _109
REMARK   46  A    between atoms: _109  and  _110
REMARK   47  A    between atoms: _109  and  _112
REMARK   48  A    between atoms: _112  and  _113
REMARK   49  A    between atoms: _118  and  _119
REMARK   50  A    between atoms: _121  and  _123
REMARK   51  A    between atoms: _123  and  _124
REMARK   52  A    between atoms: _123  and  _126
REMARK   53  A    between atoms: _126  and  _127
REMARK   54  A    between atoms: _127  and  _128
REMARK   55  A    between atoms: _130  and  _132
REMARK   56  A    between atoms: _132  and  _133
REMARK   57  A    between atoms: _132  and  _135
REMARK   58  A    between atoms: _135  and  _136
REMARK   59  A    between atoms: _142  and  _144
REMARK   60  A    between atoms: _144  and  _145
REMARK   61  A    between atoms: _144  and  _147
REMARK   62  A    between atoms: _147  and  _148
REMARK   63  A    between atoms: _148  and  _149
REMARK   64  A    between atoms: _149  and  _150
REMARK   65  A    between atoms: _159  and  _161
REMARK   66  A    between atoms: _161  and  _162
REMARK   67  A    between atoms: _161  and  _164
REMARK   68  A    between atoms: _164  and  _165
REMARK   69  A    between atoms: _165  and  _166
REMARK   70  A    between atoms: _169  and  _171
REMARK   71  A    between atoms: _171  and  _172
REMARK   72  A    between atoms: _171  and  _174
REMARK   73  A    between atoms: _174  and  _175
REMARK   74  A    between atoms: _175  and  _176
REMARK   75  A    between atoms: _181  and  _183
REMARK   76  A    between atoms: _183  and  _184
REMARK   77  A    between atoms: _183  and  _186
REMARK   78  A    between atoms: _186  and  _187
REMARK   79  A    between atoms: _192  and  _194
REMARK   80  A    between atoms: _194  and  _195
REMARK   81  A    between atoms: _194  and  _197
REMARK   82  A    between atoms: _197  and  _198
REMARK   83  A    between atoms: _203  and  _205
REMARK   84  A    between atoms: _205  and  _206
REMARK   85  A    between atoms: _205  and  _208
REMARK   86  A    between atoms: _208  and  _209
REMARK   87  A    between atoms: _209  and  _210
REMARK   88  A    between atoms: _212  and  _214
REMARK   89  A    between atoms: _214  and  _215
REMARK   90  A    between atoms: _218  and  _220
REMARK   91  A    between atoms: _220  and  _221
REMARK   92  A    between atoms: _220  and  _223
REMARK   93  A    between atoms: _223  and  _224
REMARK   94  A    between atoms: _226  and  _228
REMARK   95  A    between atoms: _228  and  _229
REMARK   96  A    between atoms: _228  and  _231
REMARK   97  A    between atoms: _231  and  _232
REMARK   98  A    between atoms: _238  and  _240
REMARK   99  A    between atoms: _240  and  _241
REMARK  100  A    between atoms: _240  and  _243
REMARK  101  A    between atoms: _243  and  _244
REMARK  102  A    between atoms: _244  and  _245
REMARK  103  A    between atoms: _250  and  _252
REMARK  104  A    between atoms: _252  and  _253
REMARK  105  A    between atoms: _252  and  _255
REMARK  106  A    between atoms: _255  and  _256
REMARK  107  A    between atoms: _258  and  _260
REMARK  108  A    between atoms: _260  and  _261
REMARK  109  A    between atoms: _260  and  _263
REMARK  110  A    between atoms: _263  and  _264
REMARK  111  A    between atoms: _266  and  _268
REMARK  112  A    between atoms: _268  and  _269
REMARK  113  A    between atoms: _268  and  _271
REMARK  114  A    between atoms: _271  and  _272
REMARK  115  A    between atoms: _277  and  _278
REMARK  116  A    between atoms: _280  and  _282
REMARK  117  A    between atoms: _282  and  _283
REMARK  118  A    between atoms: _282  and  _285
REMARK  119  A    between atoms: _285  and  _286
REMARK  120  A    between atoms: _286  and  _287
REMARK  121  A    between atoms: _292  and  _294
REMARK  122  A    between atoms: _294  and  _295
REMARK  123  A    between atoms: _297  and  _299
REMARK  124  A    between atoms: _299  and  _300
REMARK  125  A    between atoms: _299  and  _302
REMARK  126  A    between atoms: _302  and  _303
REMARK  127  A    between atoms: _308  and  _310
REMARK  128  A    between atoms: _310  and  _311
REMARK  129  A    between atoms: _310  and  _313
REMARK  130  A    between atoms: _313  and  _314
REMARK  131  A    between atoms: _317  and  _319
REMARK  132  A    between atoms: _319  and  _320
REMARK  133  A    between atoms: _319  and  _322
REMARK  134  A    between atoms: _322  and  _323
REMARK  135  A    between atoms: _323  and  _324
REMARK  136  A    between atoms: _324  and  _325
REMARK  137  A    between atoms: _334  and  _336
REMARK  138  A    between atoms: _336  and  _337
REMARK  139  A    between atoms: _336  and  _339
REMARK  140  A    between atoms: _339  and  _340
REMARK  141  A    between atoms: _345  and  _346
REMARK  142  A    between atoms: _348  and  _350
REMARK  143  A    between atoms: _350  and  _351
REMARK  144  A    between atoms: _350  and  _353
REMARK  145  A    between atoms: _353  and  _354
REMARK  146  A    between atoms: _357  and  _359
REMARK  147  A    between atoms: _359  and  _360
REMARK  148  A    between atoms: _359  and  _362
REMARK  149  A    between atoms: _365  and  _367
REMARK  150  A    between atoms: _367  and  _368
REMARK  151  A    between atoms: _367  and  _370
REMARK  152  A    between atoms: _370  and  _371
REMARK  153  A    between atoms: _373  and  _375
REMARK  154  A    between atoms: _375  and  _376
REMARK  155  A    between atoms: _375  and  _378
REMARK  156  A    between atoms: _378  and  _379
REMARK  157  A    between atoms: _379  and  _380
REMARK  158  A    between atoms: _382  and  _384
REMARK  159  A    between atoms: _384  and  _385
REMARK  160  A    between atoms: _387  and  _389
REMARK  161  A    between atoms: _389  and  _390
REMARK  162  A    between atoms: _389  and  _392
REMARK  163  A    between atoms: _392  and  _393
REMARK  164  A    between atoms: _396  and  _398
REMARK  165  A    between atoms: _398  and  _399
REMARK  166  A    between atoms: _398  and  _401
REMARK  167  A    between atoms: _401  and  _402
REMARK  168  A    between atoms: _408  and  _410
REMARK  169  A    between atoms: _410  and  _411
REMARK  170  A    between atoms: _410  and  _413
REMARK  171  A    between atoms: _413  and  _414
REMARK  172  A    between atoms: _417  and  _419
REMARK  173  A    between atoms: _419  and  _420
REMARK  174  A    between atoms: _422  and  _424
REMARK  175  A    between atoms: _424  and  _425
REMARK  176  A    between atoms: _424  and  _427
REMARK  177  A    between atoms: _427  and  _428
REMARK  178  A    between atoms: _431  and  _433
REMARK  179  A    between atoms: _433  and  _434
REMARK  180  A    between atoms: _436  and  _438
REMARK  181  A    between atoms: _438  and  _439
REMARK  182  A    between atoms: _438  and  _441
REMARK  183  A    between atoms: _441  and  _442
REMARK  184  A    between atoms: _442  and  _443
REMARK  185  A    between atoms: _446  and  _448
REMARK  186  A    between atoms: _448  and  _449
REMARK  187  A    between atoms: _448  and  _451
REMARK  188  A    between atoms: _451  and  _452
REMARK  189  A    between atoms: _452  and  _453
REMARK  190  A    between atoms: _455  and  _457
REMARK  191  A    between atoms: _457  and  _458
REMARK  192  A    between atoms: _457  and  _460
REMARK  193  A    between atoms: _460  and  _461
REMARK  194  A    between atoms: _464  and  _466
REMARK  195  A    between atoms: _466  and  _467
REMARK  196  A    between atoms: _466  and  _469
REMARK  197  A    between atoms: _469  and  _470
REMARK  198  A    between atoms: _470  and  _471
REMARK  199  A    between atoms: _474  and  _476
REMARK  200  A    between atoms: _476  and  _477
REMARK  201  A    between atoms: _476  and  _479
REMARK  202  A    between atoms: _479  and  _480
REMARK  203  A    between atoms: _480  and  _481
REMARK  204  A    between atoms: _484  and  _486
REMARK  205  A    between atoms: _486  and  _487
REMARK  206  A    between atoms: _486  and  _489
REMARK  207  A    between atoms: _489  and  _490
REMARK  208  A    between atoms: _492  and  _494
REMARK  209  A    between atoms: _494  and  _495
REMARK  210  A    between atoms: _494  and  _497
REMARK  211  A    between atoms: _497  and  _498
REMARK  212  A    between atoms: _501  and  _503
REMARK  213  A    between atoms: _503  and  _504
REMARK  214  A    between atoms: _503  and  _506
REMARK  215  A    between atoms: _506  and  _507
REMARK  216  A    between atoms: _512  and  _514
REMARK  217  A    between atoms: _514  and  _515
REMARK  218  A    between atoms: _514  and  _517
REMARK  219  A    between atoms: _519  and  _521
REMARK  220  A    between atoms: _525  and  _527
REMARK  221  A    between atoms: _532  and  _535
REMARK  222  A    between atoms: _535  and  _536
REMARK  223  A    between atoms: _541  and  _544
REMARK  224  A    between atoms: _542  and  _551
REMARK  225  A    between atoms: _544  and  _545
REMARK  226  A    between atoms: _545  and  _546
REMARK  227  A    between atoms: _551  and  _553
REMARK  228  A    between atoms: _553  and  _554
REMARK  229  A    between atoms: _553  and  _556
REMARK  230  A    between atoms: _556  and  _557
REMARK  231  A    between atoms: _557  and  _558
REMARK  232  A    between atoms: _558  and  _559
REMARK  233  A    between atoms: _568  and  _570
REMARK  234  A    between atoms: _570  and  _571
REMARK  235  A    between atoms: _570  and  _573
REMARK  236  A    between atoms: _573  and  _574
REMARK  237  A    between atoms: _577  and  _579
REMARK  238  A    between atoms: _579  and  _580
REMARK  239  A    between atoms: _579  and  _582
REMARK  240  A    between atoms: _582  and  _583
REMARK  241  A    between atoms: _586  and  _588
REMARK  242  A    between atoms: _588  and  _589
REMARK  243  A    between atoms: _592  and  _593
REMARK  244  A    between atoms: _598  and  _600
REMARK  245  A    between atoms: _600  and  _601
REMARK  246  A    between atoms: _600  and  _603
REMARK  247  A    between atoms: _606  and  _608
REMARK  248  A    between atoms: _608  and  _609
REMARK  249  A    between atoms: _608  and  _611
REMARK  250  A    between atoms: _611  and  _612
REMARK  251  A    between atoms: _612  and  _613
REMARK  252  A    between atoms: _618  and  _620
REMARK  253  A    between atoms: _620  and  _621
REMARK  254  A    between atoms: _620  and  _623
REMARK  255  A    between atoms: _623  and  _624
REMARK  256  A    between atoms: _627  and  _629
REMARK  257  A    between atoms: _629  and  _630
REMARK  258  A    between atoms: _629  and  _632
REMARK  259  A    between atoms: _632  and  _633
REMARK  260  A    between atoms: _633  and  _634
REMARK  261  A    between atoms: _634  and  _635
REMARK  262  A    between atoms: _635  and  _636
REMARK  263  A    between atoms: _640  and  _642
REMARK  264  A    between atoms: _642  and  _643
REMARK  265  A    between atoms: _645  and  _647
REMARK  266  A    between atoms: _647  and  _648
REMARK  267  A    between atoms: _647  and  _650
REMARK  268  A    between atoms: _650  and  _651
REMARK                            x       y       z     vdW  Elec       q    Type
REMARK                         _______ _______ _______ _____ _____    ______ ____
ROOT
ATOM      1  CG  TYR A   1      23.930 -35.817  -3.302  0.00  0.00    -0.020 A 
ATOM      2  CD2 TYR A   1      23.577 -35.034  -2.209  0.00  0.00    -0.001 A 
ATOM      3  CE2 TYR A   1      23.755 -35.500  -0.902  0.00  0.00    +0.036 A 
ATOM      4  CZ  TYR A   1      24.295 -36.764  -0.693  0.00  0.00    +0.134 A 
ATOM      5  CE1 TYR A   1      24.648 -37.554  -1.763  0.00  0.00    +0.036 A 
ATOM      6  CD1 TYR A   1      24.465 -37.080  -3.059  0.00  0.00    -0.001 A 
ENDROOT
BRANCH   4   7
ATOM      7  OH  TYR A   1      24.508 -37.246   0.575  0.00  0.00    -0.506 OA
ATOM      8  HH  TYR A   1      25.473 -37.426   0.700  0.00  0.00    +0.292 HD
ENDBRANCH   4   7
BRANCH   1   9
ATOM      9  CB  TYR A   1      23.744 -35.331  -4.713  0.00  0.00    +0.051 C 
BRANCH   9  10
ATOM     10  CA  TYR A   1      23.979 -33.836  -4.930  0.00  0.00    +0.137 C 
BRANCH  10  11
ATOM     11  N   TYR A   1      23.967 -33.551  -6.354  0.00  0.00    -0.239 NA
ATOM     12  H   TYR A   1      24.442 -34.206  -7.007  0.00  0.00    +0.142 HD
ENDBRANCH  10  11
BRANCH  10  13
ATOM     13  C   TYR A   1      25.316 -33.416  -4.358  0.00  0.00    +0.224 C 
ATOM     14  O   TYR A   1      26.351 -33.959  -4.742  0.00  0.00    -0.287 OA
ENDBRANCH  10  13
ENDBRANCH   9  10
ENDBRANCH   1   9
TORSDOF 5
REMARK  Name = ../refined-set-2016/1rp7/1rp7_pocket.pdb
REMARK  268 active torsions:
REMARK  status: ('A' for Active; 'I' for Inactive)
REMARK    1  A    between atoms: _1  and  _3
REMARK    2  A    between atoms: _3  and  _4
REMARK    3  A    between atoms: _7  and  _9
REMARK    4  A    between atoms: _9  and  _10
REMARK    5  A    between atoms: _9  and  _12
REMARK    6  A    between atoms: _12  and  _13
REMARK    7  A    between atoms: _16  and  _18
REMARK    8  A    between atoms: _18  and  _19
REMARK    9  A    between atoms: _18  and  _21
REMARK   10  A    between atoms: _21  and  _22
REMARK   11  A    between atoms: _22  and  _23
REMARK   12  A    between atoms: _26  and  _28
REMARK   13  A    between atoms: _28  and  _29
REMARK   14  A    between atoms: _28  and  _31
REMARK   15  A    between atoms: _31  and  _32
REMARK   16  A    between atoms: _35  and  _37
REMARK   17  A    between atoms: _37  and  _38
REMARK   18  A    between atoms: _40  and  _42
REMARK   19  A    between atoms: _42  and  _43
REMARK   20  A    between atoms: _42  and  _45
REMARK   21  A    between atoms: _45  and  _46
REMARK   22  A    between atoms: _49  and  _51
REMARK   23  A    between atoms: _51  and  _52
REMARK   24  A    between atoms: _51  and  _54
REMARK   25  A    between atoms: _54  and  _55
REMARK   26  A    between atoms: _60  and  _62
REMARK   27  A    between atoms: _62  and  _63
REMARK   28  A    between atoms: _62  and  _65
REMARK   29  A    between atoms: _65  and  _66
REMARK   30  A    between atoms: _66  and  _67
REMARK   31  A    between atoms: _70  and  _72
REMARK   32  A    between atoms: _72  and  _73
REMARK   33  A    between atoms: _72  and  _75
REMARK   34  A    between atoms: _75  and  _76
REMARK   35  A    between atoms: _79  and  _81
REMARK   36  A    between atoms: _81  and  _82
REMARK   37  A    between atoms: _81  and  _84
REMARK   38  A    between atoms: _84  and  _85
REMARK   39  A    between atoms: _90  and  _91
REMARK   40  A    between atoms: _93  and  _95
REMARK   41  A    between atoms: _95  and  _96
REMARK   42  A    between atoms: _95  and  _98
REMARK   43  A    between atoms: _98  and  _99
REMARK   44  A    between atoms: _104  and  _105
REMARK   45  A    between atoms: _107  and  _109
REMARK   46  A    between atoms: _109  and  _110
REMARK   47  A    between atoms: _109  and  _112
REMARK   48  A    between atoms: _112  and  _113
REMARK   49  A    between atoms: _118  and  _119
REMARK   50  A    between atoms: _121  and  _123
REMARK   51  A    between atoms: _123  and  _124
REMARK   52  A    between atoms: _123  and  _126
REMARK   53  A    between atoms: _126  and  _127
REMARK   54  A    between atoms: _127  and  _128
REMARK   55  A    between atoms: _130  and  _132
REMARK   56  A    between atoms: _132  and  _133
REMARK   57  A    between atoms: _132  and  _135
REMARK   58  A    between atoms: _135  and  _136
REMARK   59  A    between atoms: _142  and  _144
REMARK   60  A    between atoms: _144  and  _145
REMARK   61  A    between atoms: _144  and  _147
REMARK   62  A    between atoms: _147  and  _148
REMARK   63  A    between atoms: _148  and  _149
REMARK   64  A    between atoms: _149  and  _150
REMARK   65  A    between atoms: _159  and  _161
REMARK   66  A    between atoms: _161  and  _162
REMARK   67  A    between atoms: _161  and  _164
REMARK   68  A    between atoms: _164  and  _165
REMARK   69  A    between atoms: _165  and  _166
REMARK   70  A    between atoms: _169  and  _171
REMARK   71  A    between atoms: _171  and  _172
REMARK   72  A    between atoms: _171  and  _174
REMARK   73  A    between atoms: _174  and  _175
REMARK   74  A    between atoms: _175  and  _176
REMARK   75  A    between atoms: _181  and  _183
REMARK   76  A    between atoms: _183  and  _184
REMARK   77  A    between atoms: _183  and  _186
REMARK   78  A    between atoms: _186  and  _187
REMARK   79  A    between atoms: _192  and  _194
REMARK   80  A    between atoms: _194  and  _195
REMARK   81  A    between atoms: _194  and  _197
REMARK   82  A    between atoms: _197  and  _198
REMARK   83  A    between atoms: _203  and  _205
REMARK   84  A    between atoms: _205  and  _206
REMARK   85  A    between atoms: _205  and  _208
REMARK   86  A    between atoms: _208  and  _209
REMARK   87  A    between atoms: _209  and  _210
REMARK   88  A    between atoms: _212  and  _214
REMARK   89  A    between atoms: _214  and  _215
REMARK   90  A    between atoms: _218  and  _220
REMARK   91  A    between atoms: _220  and  _221
REMARK   92  A    between atoms: _220  and  _223
REMARK   93  A    between atoms: _223  and  _224
REMARK   94  A    between atoms: _226  and  _228
REMARK   95  A    between atoms: _228  and  _229
REMARK   96  A    between atoms: _228  and  _231
REMARK   97  A    between atoms: _231  and  _232
REMARK   98  A    between atoms: _238  and  _240
REMARK   99  A    between atoms: _240  and  _241
REMARK  100  A    between atoms: _240  and  _243
REMARK  101  A    between atoms: _243  and  _244
REMARK  102  A    between atoms: _244  and  _245
REMARK  103  A    between atoms: _250  and  _252
REMARK  104  A    between atoms: _252  and  _253
REMARK  105  A    between atoms: _252  and  _255
REMARK  106  A    between atoms: _255  and  _256
REMARK  107  A    between atoms: _258  and  _260
REMARK  108  A    between atoms: _260  and  _261
REMARK  109  A    between atoms: _260  and  _263
REMARK  110  A    between atoms: _263  and  _264
REMARK  111  A    between atoms: _266  and  _268
REMARK  112  A    between atoms: _268  and  _269
REMARK  113  A    between atoms: _268  and  _271
REMARK  114  A    between atoms: _271  and  _272
REMARK  115  A    between atoms: _277  and  _278
REMARK  116  A    between atoms: _280  and  _282
REMARK  117  A    between atoms: _282  and  _283
REMARK  118  A    between atoms: _282  and  _285
REMARK  119  A    between atoms: _285  and  _286
REMARK  120  A    between atoms: _286  and  _287
REMARK  121  A    between atoms: _292  and  _294
REMARK  122  A    between atoms: _294  and  _295
REMARK  123  A    between atoms: _297  and  _299
REMARK  124  A    between atoms: _299  and  _300
REMARK  125  A    between atoms: _299  and  _302
REMARK  126  A    between atoms: _302  and  _303
REMARK  127  A    between atoms: _308  and  _310
REMARK  128  A    between atoms: _310  and  _311
REMARK  129  A    between atoms: _310  and  _313
REMARK  130  A    between atoms: _313  and  _314
REMARK  131  A    between atoms: _317  and  _319
REMARK  132  A    between atoms: _319  and  _320
REMARK  133  A    between atoms: _319  and  _322
REMARK  134  A    between atoms: _322  and  _323
REMARK  135  A    between atoms: _323  and  _324
REMARK  136  A    between atoms: _324  and  _325
REMARK  137  A    between atoms: _334  and  _336
REMARK  138  A    between atoms: _336  and  _337
REMARK  139  A    between atoms: _336  and  _339
REMARK  140  A    between atoms: _339  and  _340
REMARK  141  A    between atoms: _345  and  _346
REMARK  142  A    between atoms: _348  and  _350
REMARK  143  A    between atoms: _350  and  _351
REMARK  144  A    between atoms: _350  and  _353
REMARK  145  A    between atoms: _353  and  _354
REMARK  146  A    between atoms: _357  and  _359
REMARK  147  A    between atoms: _359  and  _360
REMARK  148  A    between atoms: _359  and  _362
REMARK  149  A    between atoms: _365  and  _367
REMARK  150  A    between atoms: _367  and  _368
REMARK  151  A    between atoms: _367  and  _370
REMARK  152  A    between atoms: _370  and  _371
REMARK  153  A    between atoms: _373  and  _375
REMARK  154  A    between atoms: _375  and  _376
REMARK  155  A    between atoms: _375  and  _378
REMARK  156  A    between atoms: _378  and  _379
REMARK  157  A    between atoms: _379  and  _380
REMARK  158  A    between atoms: _382  and  _384
REMARK  159  A    between atoms: _384  and  _385
REMARK  160  A    between atoms: _387  and  _389
REMARK  161  A    between atoms: _389  and  _390
REMARK  162  A    between atoms: _389  and  _392
REMARK  163  A    between atoms: _392  and  _393
REMARK  164  A    between atoms: _396  and  _398
REMARK  165  A    between atoms: _398  and  _399
REMARK  166  A    between atoms: _398  and  _401
REMARK  167  A    between atoms: _401  and  _402
REMARK  168  A    between atoms: _408  and  _410
REMARK  169  A    between atoms: _410  and  _411
REMARK  170  A    between atoms: _410  and  _413
REMARK  171  A    between atoms: _413  and  _414
REMARK  172  A    between atoms: _417  and  _419
REMARK  173  A    between atoms: _419  and  _420
REMARK  174  A    between atoms: _422  and  _424
REMARK  175  A    between atoms: _424  and  _425
REMARK  176  A    between atoms: _424  and  _427
REMARK  177  A    between atoms: _427  and  _428
REMARK  178  A    between atoms: _431  and  _433
REMARK  179  A    between atoms: _433  and  _434
REMARK  180  A    between atoms: _436  and  _438
REMARK  181  A    between atoms: _438  and  _439
REMARK  182  A    between atoms: _438  and  _441
REMARK  183  A    between atoms: _441  and  _442
REMARK  184  A    between atoms: _442  and  _443
REMARK  185  A    between atoms: _446  and  _448
REMARK  186  A    between atoms: _448  and  _449
REMARK  187  A    between atoms: _448  and  _451
REMARK  188  A    between atoms: _451  and  _452
REMARK  189  A    between atoms: _452  and  _453
REMARK  190  A    between atoms: _455  and  _457
REMARK  191  A    between atoms: _457  and  _458
REMARK  192  A    between atoms: _457  and  _460
REMARK  193  A    between atoms: _460  and  _461
REMARK  194  A    between atoms: _464  and  _466
REMARK  195  A    between atoms: _466  and  _467
REMARK  196  A    between atoms: _466  and  _469
REMARK  197  A    between atoms: _469  and  _470
REMARK  198  A    between atoms: _470  and  _471
REMARK  199  A    between atoms: _474  and  _476
REMARK  200  A    between atoms: _476  and  _477
REMARK  201  A    between atoms: _476  and  _479
REMARK  202  A    between atoms: _479  and  _480
REMARK  203  A    between atoms: _480  and  _481
REMARK  204  A    between atoms: _484  and  _486
REMARK  205  A    between atoms: _486  and  _487
REMARK  206  A    between atoms: _486  and  _489
REMARK  207  A    between atoms: _489  and  _490
REMARK  208  A    between atoms: _492  and  _494
REMARK  209  A    between atoms: _494  and  _495
REMARK  210  A    between atoms: _494  and  _497
REMARK  211  A    between atoms: _497  and  _498
REMARK  212  A    between atoms: _501  and  _503
REMARK  213  A    between atoms: _503  and  _504
REMARK  214  A    between atoms: _503  and  _506
REMARK  215  A    between atoms: _506  and  _507
REMARK  216  A    between atoms: _512  and  _514
REMARK  217  A    between atoms: _514  and  _515
REMARK  218  A    between atoms: _514  and  _517
REMARK  219  A    between atoms: _519  and  _521
REMARK  220  A    between atoms: _525  and  _527
REMARK  221  A    between atoms: _532  and  _535
REMARK  222  A    between atoms: _535  and  _536
REMARK  223  A    between atoms: _541  and  _544
REMARK  224  A    between atoms: _542  and  _551
REMARK  225  A    between atoms: _544  and  _545
REMARK  226  A    between atoms: _545  and  _546
REMARK  227  A    between atoms: _551  and  _553
REMARK  228  A    between atoms: _553  and  _554
REMARK  229  A    between atoms: _553  and  _556
REMARK  230  A    between atoms: _556  and  _557
REMARK  231  A    between atoms: _557  and  _558
REMARK  232  A    between atoms: _558  and  _559
REMARK  233  A    between atoms: _568  and  _570
REMARK  234  A    between atoms: _570  and  _571
REMARK  235  A    between atoms: _570  and  _573
REMARK  236  A    between atoms: _573  and  _574
REMARK  237  A    between atoms: _577  and  _579
REMARK  238  A    between atoms: _579  and  _580
REMARK  239  A    between atoms: _579  and  _582
REMARK  240  A    between atoms: _582  and  _583
REMARK  241  A    between atoms: _586  and  _588
REMARK  242  A    between atoms: _588  and  _589
REMARK  243  A    between atoms: _592  and  _593
REMARK  244  A    between atoms: _598  and  _600
REMARK  245  A    between atoms: _600  and  _601
REMARK  246  A    between atoms: _600  and  _603
REMARK  247  A    between atoms: _606  and  _608
REMARK  248  A    between atoms: _608  and  _609
REMARK  249  A    between atoms: _608  and  _611
REMARK  250  A    between atoms: _611  and  _612
REMARK  251  A    between atoms: _612  and  _613
REMARK  252  A    between atoms: _618  and  _620
REMARK  253  A    between atoms: _620  and  _621
REMARK  254  A    between atoms: _620  and  _623
REMARK  255  A    between atoms: _623  and  _624
REMARK  256  A    between atoms: _627  and  _629
REMARK  257  A    between atoms: _629  and  _630
REMARK  258  A    between atoms: _629  and  _632
REMARK  259  A    between atoms: _632  and  _633
REMARK  260  A    between atoms: _633  and  _634
REMARK  261  A    between atoms: _634  and  _635
REMARK  262  A    between atoms: _635  and  _636
REMARK  263  A    between atoms: _640  and  _642
REMARK  264  A    between atoms: _642  and  _643
REMARK  265  A    between atoms: _645  and  _647
REMARK  266  A    between atoms: _647  and  _648
REMARK  267  A    between atoms: _647  and  _650
REMARK  268  A    between atoms: _650  and  _651
REMARK                            x       y       z     vdW  Elec       q    Type
REMARK                         _______ _______ _______ _____ _____    ______ ____
ROOT
ATOM      1  C   TYR A   1      29.212 -33.237   0.929  0.00  0.00    +0.239 C 
ATOM      2  N   TYR A   2      29.543 -33.581   2.175  0.00  0.00    -0.298 N 
ATOM      3  H   TYR A   2      28.794 -33.758   2.875  0.00  0.00    +0.150 HD
ATOM      4  O   TYR A   1      30.047 -32.968   0.074  0.00  0.00    -0.274 OA
ENDROOT
BRANCH   1   5
ATOM      5  CA  TYR A   1      27.722 -33.198   0.577  0.00  0.00    +0.149 C 
BRANCH   5   6
ATOM      6  N   TYR A   1      27.591 -32.738  -0.803  0.00  0.00    -0.238 NA
ATOM      7  H   TYR A   1      28.427 -32.777  -1.420  0.00  0.00    +0.142 HD
ENDBRANCH   5   6
BRANCH   5   8
ATOM      8  CB  TYR A   1      27.179 -34.627   0.640  0.00  0.00    +0.053 C 
BRANCH   8   9
ATOM      9  CG  TYR A   1      27.844 -35.495  -0.414  0.00  0.00    -0.020 A 
ATOM     10  CD2 TYR A   1      28.971 -36.259  -0.106  0.00  0.00    -0.001 A 
ATOM     11  CE2 TYR A   1      29.659 -36.961  -1.099  0.00  0.00    +0.036 A 
ATOM     12  CZ  TYR A   1      29.222 -36.907  -2.411  0.00  0.00    +0.134 A 
ATOM     13  CE1 TYR A   1      28.098 -36.166  -2.741  0.00  0.00    +0.036 A 
ATOM     14  CD1 TYR A   1      27.417 -35.467  -1.741  0.00  0.00    -0.001 A 
BRANCH  12  15
ATOM     15  OH  TYR A   1      29.925 -37.563  -3.393  0.00  0.00    -0.506 OA
ATOM     16  HH  TYR A   1      30.692 -38.039  -2.986  0.00  0.00    +0.292 HD
ENDBRANCH  12  15
ENDBRANCH   8   9
ENDBRANCH   5   8
ENDBRANCH   1   5
BRANCH   2  17
ATOM     17  CA  TYR A   2      30.949 -33.713   2.571  0.00  0.00    +0.141 C 
BRANCH  17  18
ATOM     18  C   TYR A   2      31.475 -34.921   1.807  0.00  0.00    +0.227 C 
ATOM     19  O   TYR A   2      30.996 -36.029   2.022  0.00  0.00    -0.286 OA
ENDBRANCH  17  18
BRANCH  17  20
ATOM     20  CB  TYR A   2      31.082 -34.008   4.064  0.00  0.00    +0.054 C 
BRANCH  20  21
ATOM     21  CG  TYR A   2      30.608 -32.908   4.964  0.00  0.00    -0.020 A 
ATOM     22  CD2 TYR A   2      31.517 -32.071   5.610  0.00  0.00    -0.001 A 
ATOM     23  CE2 TYR A   2      31.081 -31.047   6.454  0.00  0.00    +0.036 A 
ATOM     24  CZ  TYR A   2      29.726 -30.859   6.651  0.00  0.00    +0.134 A 
ATOM     25  CE1 TYR A   2      28.807 -31.679   6.022  0.00  0.00    +0.036 A 
ATOM     26  CD1 TYR A   2      29.253 -32.699   5.182  0.00  0.00    -0.001 A 
BRANCH  24  27
ATOM     27  OH  TYR A   2      29.282 -29.854   7.474  0.00  0.00    -0.506 OA
ATOM     28  HH  TYR A   2      28.292 -29.863   7.500  0.00  0.00    +0.292 HD
ENDBRANCH  24  27
ENDBRANCH  20  21
ENDBRANCH  17  20
ENDBRANCH   2  17
TORSDOF 10
REMARK  Name = ../refined-set-2016/1rp7/1rp7_pocket.pdb
REMARK  268 active torsions:
REMARK  status: ('A' for Active; 'I' for Inactive)
REMARK    1  A    between atoms: _1  and  _3
REMARK    2  A    between atoms: _3  and  _4
REMARK    3  A    between atoms: _7  and  _9
REMARK    4  A    between atoms: _9  and  _10
REMARK    5  A    between atoms: _9  and  _12
REMARK    6  A    between atoms: _12  and  _13
REMARK    7  A    between atoms: _16  and  _18
REMARK    8  A    between atoms: _18  and  _19
REMARK    9  A    between atoms: _18  and  _21
REMARK   10  A    between atoms: _21  and  _22
REMARK   11  A    between atoms: _22  and  _23
REMARK   12  A    between atoms: _26  and  _28
REMARK   13  A    between atoms: _28  and  _29
REMARK   14  A    between atoms: _28  and  _31
REMARK   15  A    between atoms: _31  and  _32
REMARK   16  A    between atoms: _35  and  _37
REMARK   17  A    between atoms: _37  and  _38
REMARK   18  A    between atoms: _40  and  _42
REMARK   19  A    between atoms: _42  and  _43
REMARK   20  A    between atoms: _42  and  _45
REMARK   21  A    between atoms: _45  and  _46
REMARK   22  A    between atoms: _49  and  _51
REMARK   23  A    between atoms: _51  and  _52
REMARK   24  A    between atoms: _51  and  _54
REMARK   25  A    between atoms: _54  and  _55
REMARK   26  A    between atoms: _60  and  _62
REMARK   27  A    between atoms: _62  and  _63
REMARK   28  A    between atoms: _62  and  _65
REMARK   29  A    between atoms: _65  and  _66
REMARK   30  A    between atoms: _66  and  _67
REMARK   31  A    between atoms: _70  and  _72
REMARK   32  A    between atoms: _72  and  _73
REMARK   33  A    between atoms: _72  and  _75
REMARK   34  A    between atoms: _75  and  _76
REMARK   35  A    between atoms: _79  and  _81
REMARK   36  A    between atoms: _81  and  _82
REMARK   37  A    between atoms: _81  and  _84
REMARK   38  A    between atoms: _84  and  _85
REMARK   39  A    between atoms: _90  and  _91
REMARK   40  A    between atoms: _93  and  _95
REMARK   41  A    between atoms: _95  and  _96
REMARK   42  A    between atoms: _95  and  _98
REMARK   43  A    between atoms: _98  and  _99
REMARK   44  A    between atoms: _104  and  _105
REMARK   45  A    between atoms: _107  and  _109
REMARK   46  A    between atoms: _109  and  _110
REMARK   47  A    between atoms: _109  and  _112
REMARK   48  A    between atoms: _112  and  _113
REMARK   49  A    between atoms: _118  and  _119
REMARK   50  A    between atoms: _121  and  _123
REMARK   51  A    between atoms: _123  and  _124
REMARK   52  A    between atoms: _123  and  _126
REMARK   53  A    between atoms: _126  and  _127
REMARK   54  A    between atoms: _127  and  _128
REMARK   55  A    between atoms: _130  and  _132
REMARK   56  A    between atoms: _132  and  _133
REMARK   57  A    between atoms: _132  and  _135
REMARK   58  A    between atoms: _135  and  _136
REMARK   59  A    between atoms: _142  and  _144
REMARK   60  A    between atoms: _144  and  _145
REMARK   61  A    between atoms: _144  and  _147
REMARK   62  A    between atoms: _147  and  _148
REMARK   63  A    between atoms: _148  and  _149
REMARK   64  A    between atoms: _149  and  _150
REMARK   65  A    between atoms: _159  and  _161
REMARK   66  A    between atoms: _161  and  _162
REMARK   67  A    between atoms: _161  and  _164
REMARK   68  A    between atoms: _164  and  _165
REMARK   69  A    between atoms: _165  and  _166
REMARK   70  A    between atoms: _169  and  _171
REMARK   71  A    between atoms: _171  and  _172
REMARK   72  A    between atoms: _171  and  _174
REMARK   73  A    between atoms: _174  and  _175
REMARK   74  A    between atoms: _175  and  _176
REMARK   75  A    between atoms: _181  and  _183
REMARK   76  A    between atoms: _183  and  _184
REMARK   77  A    between atoms: _183  and  _186
REMARK   78  A    between atoms: _186  and  _187
REMARK   79  A    between atoms: _192  and  _194
REMARK   80  A    between atoms: _194  and  _195
REMARK   81  A    between atoms: _194  and  _197
REMARK   82  A    between atoms: _197  and  _198
REMARK   83  A    between atoms: _203  and  _205
REMARK   84  A    between atoms: _205  and  _206
REMARK   85  A    between atoms: _205  and  _208
REMARK   86  A    between atoms: _208  and  _209
REMARK   87  A    between atoms: _209  and  _210
REMARK   88  A    between atoms: _212  and  _214
REMARK   89  A    between atoms: _214  and  _215
REMARK   90  A    between atoms: _218  and  _220
REMARK   91  A    between atoms: _220  and  _221
REMARK   92  A    between atoms: _220  and  _223
REMARK   93  A    between atoms: _223  and  _224
REMARK   94  A    between atoms: _226  and  _228
REMARK   95  A    between atoms: _228  and  _229
REMARK   96  A    between atoms: _228  and  _231
REMARK   97  A    between atoms: _231  and  _232
REMARK   98  A    between atoms: _238  and  _240
REMARK   99  A    between atoms: _240  and  _241
REMARK  100  A    between atoms: _240  and  _243
REMARK  101  A    between atoms: _243  and  _244
REMARK  102  A    between atoms: _244  and  _245
REMARK  103  A    between atoms: _250  and  _252
REMARK  104  A    between atoms: _252  and  _253
REMARK  105  A    between atoms: _252  and  _255
REMARK  106  A    between atoms: _255  and  _256
REMARK  107  A    between atoms: _258  and  _260
REMARK  108  A    between atoms: _260  and  _261
REMARK  109  A    between atoms: _260  and  _263
REMARK  110  A    between atoms: _263  and  _264
REMARK  111  A    between atoms: _266  and  _268
REMARK  112  A    between atoms: _268  and  _269
REMARK  113  A    between atoms: _268  and  _271
REMARK  114  A    between atoms: _271  and  _272
REMARK  115  A    between atoms: _277  and  _278
REMARK  116  A    between atoms: _280  and  _282
REMARK  117  A    between atoms: _282  and  _283
REMARK  118  A    between atoms: _282  and  _285
REMARK  119  A    between atoms: _285  and  _286
REMARK  120  A    between atoms: _286  and  _287
REMARK  121  A    between atoms: _292  and  _294
REMARK  122  A    between atoms: _294  and  _295
REMARK  123  A    between atoms: _297  and  _299
REMARK  124  A    between atoms: _299  and  _300
REMARK  125  A    between atoms: _299  and  _302
REMARK  126  A    between atoms: _302  and  _303
REMARK  127  A    between atoms: _308  and  _310
REMARK  128  A    between atoms: _310  and  _311
REMARK  129  A    between atoms: _310  and  _313
REMARK  130  A    between atoms: _313  and  _314
REMARK  131  A    between atoms: _317  and  _319
REMARK  132  A    between atoms: _319  and  _320
REMARK  133  A    between atoms: _319  and  _322
REMARK  134  A    between atoms: _322  and  _323
REMARK  135  A    between atoms: _323  and  _324
REMARK  136  A    between atoms: _324  and  _325
REMARK  137  A    between atoms: _334  and  _336
REMARK  138  A    between atoms: _336  and  _337
REMARK  139  A    between atoms: _336  and  _339
REMARK  140  A    between atoms: _339  and  _340
REMARK  141  A    between atoms: _345  and  _346
REMARK  142  A    between atoms: _348  and  _350
REMARK  143  A    between atoms: _350  and  _351
REMARK  144  A    between atoms: _350  and  _353
REMARK  145  A    between atoms: _353  and  _354
REMARK  146  A    between atoms: _357  and  _359
REMARK  147  A    between atoms: _359  and  _360
REMARK  148  A    between atoms: _359  and  _362
REMARK  149  A    between atoms: _365  and  _367
REMARK  150  A    between atoms: _367  and  _368
REMARK  151  A    between atoms: _367  and  _370
REMARK  152  A    between atoms: _370  and  _371
REMARK  153  A    between atoms: _373  and  _375
REMARK  154  A    between atoms: _375  and  _376
REMARK  155  A    between atoms: _375  and  _378
REMARK  156  A    between atoms: _378  and  _379
REMARK  157  A    between atoms: _379  and  _380
REMARK  158  A    between atoms: _382  and  _384
REMARK  159  A    between atoms: _384  and  _385
REMARK  160  A    between atoms: _387  and  _389
REMARK  161  A    between atoms: _389  and  _390
REMARK  162  A    between atoms: _389  and  _392
REMARK  163  A    between atoms: _392  and  _393
REMARK  164  A    between atoms: _396  and  _398
REMARK  165  A    between atoms: _398  and  _399
REMARK  166  A    between atoms: _398  and  _401
REMARK  167  A    between atoms: _401  and  _402
REMARK  168  A    between atoms: _408  and  _410
REMARK  169  A    between atoms: _410  and  _411
REMARK  170  A    between atoms: _410  and  _413
REMARK  171  A    between atoms: _413  and  _414
REMARK  172  A    between atoms: _417  and  _419
REMARK  173  A    between atoms: _419  and  _420
REMARK  174  A    between atoms: _422  and  _424
REMARK  175  A    between atoms: _424  and  _425
REMARK  176  A    between atoms: _424  and  _427
REMARK  177  A    between atoms: _427  and  _428
REMARK  178  A    between atoms: _431  and  _433
REMARK  179  A    between atoms: _433  and  _434
REMARK  180  A    between atoms: _436  and  _438
REMARK  181  A    between atoms: _438  and  _439
REMARK  182  A    between atoms: _438  and  _441
REMARK  183  A    between atoms: _441  and  _442
REMARK  184  A    between atoms: _442  and  _443
REMARK  185  A    between atoms: _446  and  _448
REMARK  186  A    between atoms: _448  and  _449
REMARK  187  A    between atoms: _448  and  _451
REMARK  188  A    between atoms: _451  and  _452
REMARK  189  A    between atoms: _452  and  _453
REMARK  190  A    between atoms: _455  and  _457
REMARK  191  A    between atoms: _457  and  _458
REMARK  192  A    between atoms: _457  and  _460
REMARK  193  A    between atoms: _460  and  _461
REMARK  194  A    between atoms: _464  and  _466
REMARK  195  A    between atoms: _466  and  _467
REMARK  196  A    between atoms: _466  and  _469
REMARK  197  A    between atoms: _469  and  _470
REMARK  198  A    between atoms: _470  and  _471
REMARK  199  A    between atoms: _474  and  _476
REMARK  200  A    between atoms: _476  and  _477
REMARK  201  A    between atoms: _476  and  _479
REMARK  202  A    between atoms: _479  and  _480
REMARK  203  A    between atoms: _480  and  _481
REMARK  204  A    between atoms: _484  and  _486
REMARK  205  A    between atoms: _486  and  _487
REMARK  206  A    between atoms: _486  and  _489
REMARK  207  A    between atoms: _489  and  _490
REMARK  208  A    between atoms: _492  and  _494
REMARK  209  A    between atoms: _494  and  _495
REMARK  210  A    between atoms: _494  and  _497
REMARK  211  A    between atoms: _497  and  _498
REMARK  212  A    between atoms: _501  and  _503
REMARK  213  A    between atoms: _503  and  _504
REMARK  214  A    between atoms: _503  and  _506
REMARK  215  A    between atoms: _506  and  _507
REMARK  216  A    between atoms: _512  and  _514
REMARK  217  A    between atoms: _514  and  _515
REMARK  218  A    between atoms: _514  and  _517
REMARK  219  A    between atoms: _519  and  _521
REMARK  220  A    between atoms: _525  and  _527
REMARK  221  A    between atoms: _532  and  _535
REMARK  222  A    between atoms: _535  and  _536
REMARK  223  A    between atoms: _541  and  _544
REMARK  224  A    between atoms: _542  and  _551
REMARK  225  A    between atoms: _544  and  _545
REMARK  226  A    between atoms: _545  and  _546
REMARK  227  A    between atoms: _551  and  _553
REMARK  228  A    between atoms: _553  and  _554
REMARK  229  A    between atoms: _553  and  _556
REMARK  230  A    between atoms: _556  and  _557
REMARK  231  A    between atoms: _557  and  _558
REMARK  232  A    between atoms: _558  and  _559
REMARK  233  A    between atoms: _568  and  _570
REMARK  234  A    between atoms: _570  and  _571
REMARK  235  A    between atoms: _570  and  _573
REMARK  236  A    between atoms: _573  and  _574
REMARK  237  A    between atoms: _577  and  _579
REMARK  238  A    between atoms: _579  and  _580
REMARK  239  A    between atoms: _579  and  _582
REMARK  240  A    between atoms: _582  and  _583
REMARK  241  A    between atoms: _586  and  _588
REMARK  242  A    between atoms: _588  and  _589
REMARK  243  A    between atoms: _592  and  _593
REMARK  244  A    between atoms: _598  and  _600
REMARK  245  A    between atoms: _600  and  _601
REMARK  246  A    between atoms: _600  and  _603
REMARK  247  A    between atoms: _606  and  _608
REMARK  248  A    between atoms: _608  and  _609
REMARK  249  A    between atoms: _608  and  _611
REMARK  250  A    between atoms: _611  and  _612
REMARK  251  A    between atoms: _612  and  _613
REMARK  252  A    between atoms: _618  and  _620
REMARK  253  A    between atoms: _620  and  _621
REMARK  254  A    between atoms: _620  and  _623
REMARK  255  A    between atoms: _623  and  _624
REMARK  256  A    between atoms: _627  and  _629
REMARK  257  A    between atoms: _629  and  _630
REMARK  258  A    between atoms: _629  and  _632
REMARK  259  A    between atoms: _632  and  _633
REMARK  260  A    between atoms: _633  and  _634
REMARK  261  A    between atoms: _634  and  _635
REMARK  262  A    between atoms: _635  and  _636
REMARK  263  A    between atoms: _640  and  _642
REMARK  264  A    between atoms: _642  and  _643
REMARK  265  A    between atoms: _645  and  _647
REMARK  266  A    between atoms: _647  and  _648
REMARK  267  A    between atoms: _647  and  _650
REMARK  268  A    between atoms: _650  and  _651
REMARK                            x       y       z     vdW  Elec       q    Type
REMARK                         _______ _______ _______ _____ _____    ______ ____
ROOT
ATOM      1  C   MET A   1      32.989 -39.124   3.036  0.00  0.00    +0.238 C 
ATOM      2  N   PHE A   2      31.783 -38.566   3.110  0.00  0.00    -0.298 N 
ATOM      3  H   PHE A   2      31.701 -37.531   3.047  0.00  0.00    +0.150 HD
ATOM      4  O   MET A   1      33.175 -40.341   3.085  0.00  0.00    -0.274 OA
ENDROOT
BRANCH   1   5
ATOM      5  CA  MET A   1      34.164 -38.159   2.896  0.00  0.00    +0.146 C 
BRANCH   5   6
ATOM      6  N   MET A   1      33.823 -36.989   2.094  0.00  0.00    -0.238 NA
ATOM      7  H   MET A   1      33.948 -36.041   2.504  0.00  0.00    +0.142 HD
ENDBRANCH   5   6
BRANCH   5   8
ATOM      8  CB  MET A   1      34.603 -37.729   4.294  0.00  0.00    +0.038 C 
BRANCH   8   9
ATOM      9  CG  MET A   1      34.991 -38.885   5.204  0.00  0.00    +0.060 C 
BRANCH   9  10
ATOM     10  SD  MET A   1      36.464 -39.745   4.624  0.00  0.00    -0.139 S 
ATOM     11  CE  MET A   1      37.650 -39.298   5.823  0.00  0.00    +0.069 C 
ENDBRANCH   9  10
ENDBRANCH   8   9
ENDBRANCH   5   8
ENDBRANCH   1   5
BRANCH   2  12
ATOM     12  CA  PHE A   2      30.576 -39.361   3.277  0.00  0.00    +0.141 C 
BRANCH  12  13
ATOM     13  C   PHE A   2      29.933 -39.752   1.947  0.00  0.00    +0.227 C 
ATOM     14  O   PHE A   2      28.723 -40.007   1.868  0.00  0.00    -0.286 OA
ENDBRANCH  12  13
BRANCH  12  15
ATOM     15  CB  PHE A   2      29.593 -38.605   4.175  0.00  0.00    +0.054 C 
BRANCH  15  16
ATOM     16  CG  PHE A   2      30.202 -38.132   5.470  0.00  0.00    -0.020 A 
ATOM     17  CD2 PHE A   2      30.955 -38.999   6.259  0.00  0.00    -0.004 A 
ATOM     18  CE2 PHE A   2      31.547 -38.561   7.448  0.00  0.00    -0.000 A 
ATOM     19  CZ  PHE A   2      31.387 -37.242   7.854  0.00  0.00    -0.000 A 
ATOM     20  CE1 PHE A   2      30.640 -36.371   7.077  0.00  0.00    -0.000 A 
ATOM     21  CD1 PHE A   2      30.051 -36.817   5.891  0.00  0.00    -0.004 A 
ENDBRANCH  15  16
ENDBRANCH  12  15
ENDBRANCH   2  12
TORSDOF 9
REMARK  Name = ../refined-set-2016/1rp7/1rp7_pocket.pdb
REMARK  268 active torsions:
REMARK  status: ('A' for Active; 'I' for Inactive)
REMARK    1  A    between atoms: _1  and  _3
REMARK    2  A    between atoms: _3  and  _4
REMARK    3  A    between atoms: _7  and  _9
REMARK    4  A    between atoms: _9  and  _10
REMARK    5  A    between atoms: _9  and  _12
REMARK    6  A    between atoms: _12  and  _13
REMARK    7  A    between atoms: _16  and  _18
REMARK    8  A    between atoms: _18  and  _19
REMARK    9  A    between atoms: _18  and  _21
REMARK   10  A    between atoms: _21  and  _22
REMARK   11  A    between atoms: _22  and  _23
REMARK   12  A    between atoms: _26  and  _28
REMARK   13  A    between atoms: _28  and  _29
REMARK   14  A    between atoms: _28  and  _31
REMARK   15  A    between atoms: _31  and  _32
REMARK   16  A    between atoms: _35  and  _37
REMARK   17  A    between atoms: _37  and  _38
REMARK   18  A    between atoms: _40  and  _42
REMARK   19  A    between atoms: _42  and  _43
REMARK   20  A    between atoms: _42  and  _45
REMARK   21  A    between atoms: _45  and  _46
REMARK   22  A    between atoms: _49  and  _51
REMARK   23  A    between atoms: _51  and  _52
REMARK   24  A    between atoms: _51  and  _54
REMARK   25  A    between atoms: _54  and  _55
REMARK   26  A    between atoms: _60  and  _62
REMARK   27  A    between atoms: _62  and  _63
REMARK   28  A    between atoms: _62  and  _65
REMARK   29  A    between atoms: _65  and  _66
REMARK   30  A    between atoms: _66  and  _67
REMARK   31  A    between atoms: _70  and  _72
REMARK   32  A    between atoms: _72  and  _73
REMARK   33  A    between atoms: _72  and  _75
REMARK   34  A    between atoms: _75  and  _76
REMARK   35  A    between atoms: _79  and  _81
REMARK   36  A    between atoms: _81  and  _82
REMARK   37  A    between atoms: _81  and  _84
REMARK   38  A    between atoms: _84  and  _85
REMARK   39  A    between atoms: _90  and  _91
REMARK   40  A    between atoms: _93  and  _95
REMARK   41  A    between atoms: _95  and  _96
REMARK   42  A    between atoms: _95  and  _98
REMARK   43  A    between atoms: _98  and  _99
REMARK   44  A    between atoms: _104  and  _105
REMARK   45  A    between atoms: _107  and  _109
REMARK   46  A    between atoms: _109  and  _110
REMARK   47  A    between atoms: _109  and  _112
REMARK   48  A    between atoms: _112  and  _113
REMARK   49  A    between atoms: _118  and  _119
REMARK   50  A    between atoms: _121  and  _123
REMARK   51  A    between atoms: _123  and  _124
REMARK   52  A    between atoms: _123  and  _126
REMARK   53  A    between atoms: _126  and  _127
REMARK   54  A    between atoms: _127  and  _128
REMARK   55  A    between atoms: _130  and  _132
REMARK   56  A    between atoms: _132  and  _133
REMARK   57  A    between atoms: _132  and  _135
REMARK   58  A    between atoms: _135  and  _136
REMARK   59  A    between atoms: _142  and  _144
REMARK   60  A    between atoms: _144  and  _145
REMARK   61  A    between atoms: _144  and  _147
REMARK   62  A    between atoms: _147  and  _148
REMARK   63  A    between atoms: _148  and  _149
REMARK   64  A    between atoms: _149  and  _150
REMARK   65  A    between atoms: _159  and  _161
REMARK   66  A    between atoms: _161  and  _162
REMARK   67  A    between atoms: _161  and  _164
REMARK   68  A    between atoms: _164  and  _165
REMARK   69  A    between atoms: _165  and  _166
REMARK   70  A    between atoms: _169  and  _171
REMARK   71  A    between atoms: _171  and  _172
REMARK   72  A    between atoms: _171  and  _174
REMARK   73  A    between atoms: _174  and  _175
REMARK   74  A    between atoms: _175  and  _176
REMARK   75  A    between atoms: _181  and  _183
REMARK   76  A    between atoms: _183  and  _184
REMARK   77  A    between atoms: _183  and  _186
REMARK   78  A    between atoms: _186  and  _187
REMARK   79  A    between atoms: _192  and  _194
REMARK   80  A    between atoms: _194  and  _195
REMARK   81  A    between atoms: _194  and  _197
REMARK   82  A    between atoms: _197  and  _198
REMARK   83  A    between atoms: _203  and  _205
REMARK   84  A    between atoms: _205  and  _206
REMARK   85  A    between atoms: _205  and  _208
REMARK   86  A    between atoms: _208  and  _209
REMARK   87  A    between atoms: _209  and  _210
REMARK   88  A    between atoms: _212  and  _214
REMARK   89  A    between atoms: _214  and  _215
REMARK   90  A    between atoms: _218  and  _220
REMARK   91  A    between atoms: _220  and  _221
REMARK   92  A    between atoms: _220  and  _223
REMARK   93  A    between atoms: _223  and  _224
REMARK   94  A    between atoms: _226  and  _228
REMARK   95  A    between atoms: _228  and  _229
REMARK   96  A    between atoms: _228  and  _231
REMARK   97  A    between atoms: _231  and  _232
REMARK   98  A    between atoms: _238  and  _240
REMARK   99  A    between atoms: _240  and  _241
REMARK  100  A    between atoms: _240  and  _243
REMARK  101  A    between atoms: _243  and  _244
REMARK  102  A    between atoms: _244  and  _245
REMARK  103  A    between atoms: _250  and  _252
REMARK  104  A    between atoms: _252  and  _253
REMARK  105  A    between atoms: _252  and  _255
REMARK  106  A    between atoms: _255  and  _256
REMARK  107  A    between atoms: _258  and  _260
REMARK  108  A    between atoms: _260  and  _261
REMARK  109  A    between atoms: _260  and  _263
REMARK  110  A    between atoms: _263  and  _264
REMARK  111  A    between atoms: _266  and  _268
REMARK  112  A    between atoms: _268  and  _269
REMARK  113  A    between atoms: _268  and  _271
REMARK  114  A    between atoms: _271  and  _272
REMARK  115  A    between atoms: _277  and  _278
REMARK  116  A    between atoms: _280  and  _282
REMARK  117  A    between atoms: _282  and  _283
REMARK  118  A    between atoms: _282  and  _285
REMARK  119  A    between atoms: _285  and  _286
REMARK  120  A    between atoms: _286  and  _287
REMARK  121  A    between atoms: _292  and  _294
REMARK  122  A    between atoms: _294  and  _295
REMARK  123  A    between atoms: _297  and  _299
REMARK  124  A    between atoms: _299  and  _300
REMARK  125  A    between atoms: _299  and  _302
REMARK  126  A    between atoms: _302  and  _303
REMARK  127  A    between atoms: _308  and  _310
REMARK  128  A    between atoms: _310  and  _311
REMARK  129  A    between atoms: _310  and  _313
REMARK  130  A    between atoms: _313  and  _314
REMARK  131  A    between atoms: _317  and  _319
REMARK  132  A    between atoms: _319  and  _320
REMARK  133  A    between atoms: _319  and  _322
REMARK  134  A    between atoms: _322  and  _323
REMARK  135  A    between atoms: _323  and  _324
REMARK  136  A    between atoms: _324  and  _325
REMARK  137  A    between atoms: _334  and  _336
REMARK  138  A    between atoms: _336  and  _337
REMARK  139  A    between atoms: _336  and  _339
REMARK  140  A    between atoms: _339  and  _340
REMARK  141  A    between atoms: _345  and  _346
REMARK  142  A    between atoms: _348  and  _350
REMARK  143  A    between atoms: _350  and  _351
REMARK  144  A    between atoms: _350  and  _353
REMARK  145  A    between atoms: _353  and  _354
REMARK  146  A    between atoms: _357  and  _359
REMARK  147  A    between atoms: _359  and  _360
REMARK  148  A    between atoms: _359  and  _362
REMARK  149  A    between atoms: _365  and  _367
REMARK  150  A    between atoms: _367  and  _368
REMARK  151  A    between atoms: _367  and  _370
REMARK  152  A    between atoms: _370  and  _371
REMARK  153  A    between atoms: _373  and  _375
REMARK  154  A    between atoms: _375  and  _376
REMARK  155  A    between atoms: _375  and  _378
REMARK  156  A    between atoms: _378  and  _379
REMARK  157  A    between atoms: _379  and  _380
REMARK  158  A    between atoms: _382  and  _384
REMARK  159  A    between atoms: _384  and  _385
REMARK  160  A    between atoms: _387  and  _389
REMARK  161  A    between atoms: _389  and  _390
REMARK  162  A    between atoms: _389  and  _392
REMARK  163  A    between atoms: _392  and  _393
REMARK  164  A    between atoms: _396  and  _398
REMARK  165  A    between atoms: _398  and  _399
REMARK  166  A    between atoms: _398  and  _401
REMARK  167  A    between atoms: _401  and  _402
REMARK  168  A    between atoms: _408  and  _410
REMARK  169  A    between atoms: _410  and  _411
REMARK  170  A    between atoms: _410  and  _413
REMARK  171  A    between atoms: _413  and  _414
REMARK  172  A    between atoms: _417  and  _419
REMARK  173  A    between atoms: _419  and  _420
REMARK  174  A    between atoms: _422  and  _424
REMARK  175  A    between atoms: _424  and  _425
REMARK  176  A    between atoms: _424  and  _427
REMARK  177  A    between atoms: _427  and  _428
REMARK  178  A    between atoms: _431  and  _433
REMARK  179  A    between atoms: _433  and  _434
REMARK  180  A    between atoms: _436  and  _438
REMARK  181  A    between atoms: _438  and  _439
REMARK  182  A    between atoms: _438  and  _441
REMARK  183  A    between atoms: _441  and  _442
REMARK  184  A    between atoms: _442  and  _443
REMARK  185  A    between atoms: _446  and  _448
REMARK  186  A    between atoms: _448  and  _449
REMARK  187  A    between atoms: _448  and  _451
REMARK  188  A    between atoms: _451  and  _452
REMARK  189  A    between atoms: _452  and  _453
REMARK  190  A    between atoms: _455  and  _457
REMARK  191  A    between atoms: _457  and  _458
REMARK  192  A    between atoms: _457  and  _460
REMARK  193  A    between atoms: _460  and  _461
REMARK  194  A    between atoms: _464  and  _466
REMARK  195  A    between atoms: _466  and  _467
REMARK  196  A    between atoms: _466  and  _469
REMARK  197  A    between atoms: _469  and  _470
REMARK  198  A    between atoms: _470  and  _471
REMARK  199  A    between atoms: _474  and  _476
REMARK  200  A    between atoms: _476  and  _477
REMARK  201  A    between atoms: _476  and  _479
REMARK  202  A    between atoms: _479  and  _480
REMARK  203  A    between atoms: _480  and  _481
REMARK  204  A    between atoms: _484  and  _486
REMARK  205  A    between atoms: _486  and  _487
REMARK  206  A    between atoms: _486  and  _489
REMARK  207  A    between atoms: _489  and  _490
REMARK  208  A    between atoms: _492  and  _494
REMARK  209  A    between atoms: _494  and  _495
REMARK  210  A    between atoms: _494  and  _497
REMARK  211  A    between atoms: _497  and  _498
REMARK  212  A    between atoms: _501  and  _503
REMARK  213  A    between atoms: _503  and  _504
REMARK  214  A    between atoms: _503  and  _506
REMARK  215  A    between atoms: _506  and  _507
REMARK  216  A    between atoms: _512  and  _514
REMARK  217  A    between atoms: _514  and  _515
REMARK  218  A    between atoms: _514  and  _517
REMARK  219  A    between atoms: _519  and  _521
REMARK  220  A    between atoms: _525  and  _527
REMARK  221  A    between atoms: _532  and  _535
REMARK  222  A    between atoms: _535  and  _536
REMARK  223  A    between atoms: _541  and  _544
REMARK  224  A    between atoms: _542  and  _551
REMARK  225  A    between atoms: _544  and  _545
REMARK  226  A    between atoms: _545  and  _546
REMARK  227  A    between atoms: _551  and  _553
REMARK  228  A    between atoms: _553  and  _554
REMARK  229  A    between atoms: _553  and  _556
REMARK  230  A    between atoms: _556  and  _557
REMARK  231  A    between atoms: _557  and  _558
REMARK  232  A    between atoms: _558  and  _559
REMARK  233  A    between atoms: _568  and  _570
REMARK  234  A    between atoms: _570  and  _571
REMARK  235  A    between atoms: _570  and  _573
REMARK  236  A    between atoms: _573  and  _574
REMARK  237  A    between atoms: _577  and  _579
REMARK  238  A    between atoms: _579  and  _580
REMARK  239  A    between atoms: _579  and  _582
REMARK  240  A    between atoms: _582  and  _583
REMARK  241  A    between atoms: _586  and  _588
REMARK  242  A    between atoms: _588  and  _589
REMARK  243  A    between atoms: _592  and  _593
REMARK  244  A    between atoms: _598  and  _600
REMARK  245  A    between atoms: _600  and  _601
REMARK  246  A    between atoms: _600  and  _603
REMARK  247  A    between atoms: _606  and  _608
REMARK  248  A    between atoms: _608  and  _609
REMARK  249  A    between atoms: _608  and  _611
REMARK  250  A    between atoms: _611  and  _612
REMARK  251  A    between atoms: _612  and  _613
REMARK  252  A    between atoms: _618  and  _620
REMARK  253  A    between atoms: _620  and  _621
REMARK  254  A    between atoms: _620  and  _623
REMARK  255  A    between atoms: _623  and  _624
REMARK  256  A    between atoms: _627  and  _629
REMARK  257  A    between atoms: _629  and  _630
REMARK  258  A    between atoms: _629  and  _632
REMARK  259  A    between atoms: _632  and  _633
REMARK  260  A    between atoms: _633  and  _634
REMARK  261  A    between atoms: _634  and  _635
REMARK  262  A    between atoms: _635  and  _636
REMARK  263  A    between atoms: _640  and  _642
REMARK  264  A    between atoms: _642  and  _643
REMARK  265  A    between atoms: _645  and  _647
REMARK  266  A    between atoms: _647  and  _648
REMARK  267  A    between atoms: _647  and  _650
REMARK  268  A    between atoms: _650  and  _651
REMARK                            x       y       z     vdW  Elec       q    Type
REMARK                         _______ _______ _______ _____ _____    ______ ____
ROOT
ATOM      1  NE  ARG A   1      26.883 -43.856   6.830  0.00  0.00    -0.265 N 
ATOM      2  CZ  ARG A   1      26.763 -43.131   7.937  0.00  0.00    +0.342 C 
ATOM      3  NH2 ARG A   1      25.643 -43.178   8.643  0.00  0.00    -0.292 N 
ATOM      4 HH21 ARG A   1      25.550 -42.610   9.509  0.00  0.00    +0.255 HD
ATOM      5 HH22 ARG A   1      24.857 -43.783   8.331  0.00  0.00    +0.255 HD
ATOM      6  NH1 ARG A   1      27.761 -42.355   8.337  0.00  0.00    -0.292 N 
ATOM      7 HH11 ARG A   1      27.664 -41.789   9.204  0.00  0.00    +0.255 HD
ATOM      8 HH12 ARG A   1      28.641 -42.313   7.784  0.00  0.00    +0.255 HD
ATOM      9  HE  ARG A   1      26.075 -44.449   6.551  0.00  0.00    +0.259 HD
ENDROOT
BRANCH   1  10
ATOM     10  CD  ARG A   1      28.072 -43.880   5.974  0.00  0.00    +0.174 C 
BRANCH  10  11
ATOM     11  CG  ARG A   1      27.868 -43.090   4.677  0.00  0.00    +0.045 C 
BRANCH  11  12
ATOM     12  CB  ARG A   1      29.169 -42.919   3.898  0.00  0.00    +0.029 C 
BRANCH  12  13
ATOM     13  CA  ARG A   1      29.701 -44.203   3.252  0.00  0.00    +0.133 C 
BRANCH  13  14
ATOM     14  N   ARG A   1      30.907 -43.895   2.496  0.00  0.00    -0.239 NA
ATOM     15  H   ARG A   1      30.996 -42.955   2.061  0.00  0.00    +0.142 HD
ENDBRANCH  13  14
BRANCH  13  16
ATOM     16  C   ARG A   1      28.592 -44.868   2.431  0.00  0.00    +0.224 C 
ATOM     17  O   ARG A   1      27.859 -45.714   2.948  0.00  0.00    -0.287 OA
ENDBRANCH  13  16
ENDBRANCH  12  13
ENDBRANCH  11  12
ENDBRANCH  10  11
ENDBRANCH   1  10
TORSDOF 6
REMARK  Name = ../refined-set-2016/1rp7/1rp7_pocket.pdb
REMARK  268 active torsions:
REMARK  status: ('A' for Active; 'I' for Inactive)
REMARK    1  A    between atoms: _1  and  _3
REMARK    2  A    between atoms: _3  and  _4
REMARK    3  A    between atoms: _7  and  _9
REMARK    4  A    between atoms: _9  and  _10
REMARK    5  A    between atoms: _9  and  _12
REMARK    6  A    between atoms: _12  and  _13
REMARK    7  A    between atoms: _16  and  _18
REMARK    8  A    between atoms: _18  and  _19
REMARK    9  A    between atoms: _18  and  _21
REMARK   10  A    between atoms: _21  and  _22
REMARK   11  A    between atoms: _22  and  _23
REMARK   12  A    between atoms: _26  and  _28
REMARK   13  A    between atoms: _28  and  _29
REMARK   14  A    between atoms: _28  and  _31
REMARK   15  A    between atoms: _31  and  _32
REMARK   16  A    between atoms: _35  and  _37
REMARK   17  A    between atoms: _37  and  _38
REMARK   18  A    between atoms: _40  and  _42
REMARK   19  A    between atoms: _42  and  _43
REMARK   20  A    between atoms: _42  and  _45
REMARK   21  A    between atoms: _45  and  _46
REMARK   22  A    between atoms: _49  and  _51
REMARK   23  A    between atoms: _51  and  _52
REMARK   24  A    between atoms: _51  and  _54
REMARK   25  A    between atoms: _54  and  _55
REMARK   26  A    between atoms: _60  and  _62
REMARK   27  A    between atoms: _62  and  _63
REMARK   28  A    between atoms: _62  and  _65
REMARK   29  A    between atoms: _65  and  _66
REMARK   30  A    between atoms: _66  and  _67
REMARK   31  A    between atoms: _70  and  _72
REMARK   32  A    between atoms: _72  and  _73
REMARK   33  A    between atoms: _72  and  _75
REMARK   34  A    between atoms: _75  and  _76
REMARK   35  A    between atoms: _79  and  _81
REMARK   36  A    between atoms: _81  and  _82
REMARK   37  A    between atoms: _81  and  _84
REMARK   38  A    between atoms: _84  and  _85
REMARK   39  A    between atoms: _90  and  _91
REMARK   40  A    between atoms: _93  and  _95
REMARK   41  A    between atoms: _95  and  _96
REMARK   42  A    between atoms: _95  and  _98
REMARK   43  A    between atoms: _98  and  _99
REMARK   44  A    between atoms: _104  and  _105
REMARK   45  A    between atoms: _107  and  _109
REMARK   46  A    between atoms: _109  and  _110
REMARK   47  A    between atoms: _109  and  _112
REMARK   48  A    between atoms: _112  and  _113
REMARK   49  A    between atoms: _118  and  _119
REMARK   50  A    between atoms: _121  and  _123
REMARK   51  A    between atoms: _123  and  _124
REMARK   52  A    between atoms: _123  and  _126
REMARK   53  A    between atoms: _126  and  _127
REMARK   54  A    between atoms: _127  and  _128
REMARK   55  A    between atoms: _130  and  _132
REMARK   56  A    between atoms: _132  and  _133
REMARK   57  A    between atoms: _132  and  _135
REMARK   58  A    between atoms: _135  and  _136
REMARK   59  A    between atoms: _142  and  _144
REMARK   60  A    between atoms: _144  and  _145
REMARK   61  A    between atoms: _144  and  _147
REMARK   62  A    between atoms: _147  and  _148
REMARK   63  A    between atoms: _148  and  _149
REMARK   64  A    between atoms: _149  and  _150
REMARK   65  A    between atoms: _159  and  _161
REMARK   66  A    between atoms: _161  and  _162
REMARK   67  A    between atoms: _161  and  _164
REMARK   68  A    between atoms: _164  and  _165
REMARK   69  A    between atoms: _165  and  _166
REMARK   70  A    between atoms: _169  and  _171
REMARK   71  A    between atoms: _171  and  _172
REMARK   72  A    between atoms: _171  and  _174
REMARK   73  A    between atoms: _174  and  _175
REMARK   74  A    between atoms: _175  and  _176
REMARK   75  A    between atoms: _181  and  _183
REMARK   76  A    between atoms: _183  and  _184
REMARK   77  A    between atoms: _183  and  _186
REMARK   78  A    between atoms: _186  and  _187
REMARK   79  A    between atoms: _192  and  _194
REMARK   80  A    between atoms: _194  and  _195
REMARK   81  A    between atoms: _194  and  _197
REMARK   82  A    between atoms: _197  and  _198
REMARK   83  A    between atoms: _203  and  _205
REMARK   84  A    between atoms: _205  and  _206
REMARK   85  A    between atoms: _205  and  _208
REMARK   86  A    between atoms: _208  and  _209
REMARK   87  A    between atoms: _209  and  _210
REMARK   88  A    between atoms: _212  and  _214
REMARK   89  A    between atoms: _214  and  _215
REMARK   90  A    between atoms: _218  and  _220
REMARK   91  A    between atoms: _220  and  _221
REMARK   92  A    between atoms: _220  and  _223
REMARK   93  A    between atoms: _223  and  _224
REMARK   94  A    between atoms: _226  and  _228
REMARK   95  A    between atoms: _228  and  _229
REMARK   96  A    between atoms: _228  and  _231
REMARK   97  A    between atoms: _231  and  _232
REMARK   98  A    between atoms: _238  and  _240
REMARK   99  A    between atoms: _240  and  _241
REMARK  100  A    between atoms: _240  and  _243
REMARK  101  A    between atoms: _243  and  _244
REMARK  102  A    between atoms: _244  and  _245
REMARK  103  A    between atoms: _250  and  _252
REMARK  104  A    between atoms: _252  and  _253
REMARK  105  A    between atoms: _252  and  _255
REMARK  106  A    between atoms: _255  and  _256
REMARK  107  A    between atoms: _258  and  _260
REMARK  108  A    between atoms: _260  and  _261
REMARK  109  A    between atoms: _260  and  _263
REMARK  110  A    between atoms: _263  and  _264
REMARK  111  A    between atoms: _266  and  _268
REMARK  112  A    between atoms: _268  and  _269
REMARK  113  A    between atoms: _268  and  _271
REMARK  114  A    between atoms: _271  and  _272
REMARK  115  A    between atoms: _277  and  _278
REMARK  116  A    between atoms: _280  and  _282
REMARK  117  A    between atoms: _282  and  _283
REMARK  118  A    between atoms: _282  and  _285
REMARK  119  A    between atoms: _285  and  _286
REMARK  120  A    between atoms: _286  and  _287
REMARK  121  A    between atoms: _292  and  _294
REMARK  122  A    between atoms: _294  and  _295
REMARK  123  A    between atoms: _297  and  _299
REMARK  124  A    between atoms: _299  and  _300
REMARK  125  A    between atoms: _299  and  _302
REMARK  126  A    between atoms: _302  and  _303
REMARK  127  A    between atoms: _308  and  _310
REMARK  128  A    between atoms: _310  and  _311
REMARK  129  A    between atoms: _310  and  _313
REMARK  130  A    between atoms: _313  and  _314
REMARK  131  A    between atoms: _317  and  _319
REMARK  132  A    between atoms: _319  and  _320
REMARK  133  A    between atoms: _319  and  _322
REMARK  134  A    between atoms: _322  and  _323
REMARK  135  A    between atoms: _323  and  _324
REMARK  136  A    between atoms: _324  and  _325
REMARK  137  A    between atoms: _334  and  _336
REMARK  138  A    between atoms: _336  and  _337
REMARK  139  A    between atoms: _336  and  _339
REMARK  140  A    between atoms: _339  and  _340
REMARK  141  A    between atoms: _345  and  _346
REMARK  142  A    between atoms: _348  and  _350
REMARK  143  A    between atoms: _350  and  _351
REMARK  144  A    between atoms: _350  and  _353
REMARK  145  A    between atoms: _353  and  _354
REMARK  146  A    between atoms: _357  and  _359
REMARK  147  A    between atoms: _359  and  _360
REMARK  148  A    between atoms: _359  and  _362
REMARK  149  A    between atoms: _365  and  _367
REMARK  150  A    between atoms: _367  and  _368
REMARK  151  A    between atoms: _367  and  _370
REMARK  152  A    between atoms: _370  and  _371
REMARK  153  A    between atoms: _373  and  _375
REMARK  154  A    between atoms: _375  and  _376
REMARK  155  A    between atoms: _375  and  _378
REMARK  156  A    between atoms: _378  and  _379
REMARK  157  A    between atoms: _379  and  _380
REMARK  158  A    between atoms: _382  and  _384
REMARK  159  A    between atoms: _384  and  _385
REMARK  160  A    between atoms: _387  and  _389
REMARK  161  A    between atoms: _389  and  _390
REMARK  162  A    between atoms: _389  and  _392
REMARK  163  A    between atoms: _392  and  _393
REMARK  164  A    between atoms: _396  and  _398
REMARK  165  A    between atoms: _398  and  _399
REMARK  166  A    between atoms: _398  and  _401
REMARK  167  A    between atoms: _401  and  _402
REMARK  168  A    between atoms: _408  and  _410
REMARK  169  A    between atoms: _410  and  _411
REMARK  170  A    between atoms: _410  and  _413
REMARK  171  A    between atoms: _413  and  _414
REMARK  172  A    between atoms: _417  and  _419
REMARK  173  A    between atoms: _419  and  _420
REMARK  174  A    between atoms: _422  and  _424
REMARK  175  A    between atoms: _424  and  _425
REMARK  176  A    between atoms: _424  and  _427
REMARK  177  A    between atoms: _427  and  _428
REMARK  178  A    between atoms: _431  and  _433
REMARK  179  A    between atoms: _433  and  _434
REMARK  180  A    between atoms: _436  and  _438
REMARK  181  A    between atoms: _438  and  _439
REMARK  182  A    between atoms: _438  and  _441
REMARK  183  A    between atoms: _441  and  _442
REMARK  184  A    between atoms: _442  and  _443
REMARK  185  A    between atoms: _446  and  _448
REMARK  186  A    between atoms: _448  and  _449
REMARK  187  A    between atoms: _448  and  _451
REMARK  188  A    between atoms: _451  and  _452
REMARK  189  A    between atoms: _452  and  _453
REMARK  190  A    between atoms: _455  and  _457
REMARK  191  A    between atoms: _457  and  _458
REMARK  192  A    between atoms: _457  and  _460
REMARK  193  A    between atoms: _460  and  _461
REMARK  194  A    between atoms: _464  and  _466
REMARK  195  A    between atoms: _466  and  _467
REMARK  196  A    between atoms: _466  and  _469
REMARK  197  A    between atoms: _469  and  _470
REMARK  198  A    between atoms: _470  and  _471
REMARK  199  A    between atoms: _474  and  _476
REMARK  200  A    between atoms: _476  and  _477
REMARK  201  A    between atoms: _476  and  _479
REMARK  202  A    between atoms: _479  and  _480
REMARK  203  A    between atoms: _480  and  _481
REMARK  204  A    between atoms: _484  and  _486
REMARK  205  A    between atoms: _486  and  _487
REMARK  206  A    between atoms: _486  and  _489
REMARK  207  A    between atoms: _489  and  _490
REMARK  208  A    between atoms: _492  and  _494
REMARK  209  A    between atoms: _494  and  _495
REMARK  210  A    between atoms: _494  and  _497
REMARK  211  A    between atoms: _497  and  _498
REMARK  212  A    between atoms: _501  and  _503
REMARK  213  A    between atoms: _503  and  _504
REMARK  214  A    between atoms: _503  and  _506
REMARK  215  A    between atoms: _506  and  _507
REMARK  216  A    between atoms: _512  and  _514
REMARK  217  A    between atoms: _514  and  _515
REMARK  218  A    between atoms: _514  and  _517
REMARK  219  A    between atoms: _519  and  _521
REMARK  220  A    between atoms: _525  and  _527
REMARK  221  A    between atoms: _532  and  _535
REMARK  222  A    between atoms: _535  and  _536
REMARK  223  A    between atoms: _541  and  _544
REMARK  224  A    between atoms: _542  and  _551
REMARK  225  A    between atoms: _544  and  _545
REMARK  226  A    between atoms: _545  and  _546
REMARK  227  A    between atoms: _551  and  _553
REMARK  228  A    between atoms: _553  and  _554
REMARK  229  A    between atoms: _553  and  _556
REMARK  230  A    between atoms: _556  and  _557
REMARK  231  A    between atoms: _557  and  _558
REMARK  232  A    between atoms: _558  and  _559
REMARK  233  A    between atoms: _568  and  _570
REMARK  234  A    between atoms: _570  and  _571
REMARK  235  A    between atoms: _570  and  _573
REMARK  236  A    between atoms: _573  and  _574
REMARK  237  A    between atoms: _577  and  _579
REMARK  238  A    between atoms: _579  and  _580
REMARK  239  A    between atoms: _579  and  _582
REMARK  240  A    between atoms: _582  and  _583
REMARK  241  A    between atoms: _586  and  _588
REMARK  242  A    between atoms: _588  and  _589
REMARK  243  A    between atoms: _592  and  _593
REMARK  244  A    between atoms: _598  and  _600
REMARK  245  A    between atoms: _600  and  _601
REMARK  246  A    between atoms: _600  and  _603
REMARK  247  A    between atoms: _606  and  _608
REMARK  248  A    between atoms: _608  and  _609
REMARK  249  A    between atoms: _608  and  _611
REMARK  250  A    between atoms: _611  and  _612
REMARK  251  A    between atoms: _612  and  _613
REMARK  252  A    between atoms: _618  and  _620
REMARK  253  A    between atoms: _620  and  _621
REMARK  254  A    between atoms: _620  and  _623
REMARK  255  A    between atoms: _623  and  _624
REMARK  256  A    between atoms: _627  and  _629
REMARK  257  A    between atoms: _629  and  _630
REMARK  258  A    between atoms: _629  and  _632
REMARK  259  A    between atoms: _632  and  _633
REMARK  260  A    between atoms: _633  and  _634
REMARK  261  A    between atoms: _634  and  _635
REMARK  262  A    between atoms: _635  and  _636
REMARK  263  A    between atoms: _640  and  _642
REMARK  264  A    between atoms: _642  and  _643
REMARK  265  A    between atoms: _645  and  _647
REMARK  266  A    between atoms: _647  and  _648
REMARK  267  A    between atoms: _647  and  _650
REMARK  268  A    between atoms: _650  and  _651
REMARK                            x       y       z     vdW  Elec       q    Type
REMARK                         _______ _______ _______ _____ _____    ______ ____
ROOT
ATOM      1  CA  GLU A   1      37.202 -31.337  11.197  0.00  0.00    +0.134 C 
ENDROOT
BRANCH   1   2
ATOM      2  N   GLU A   1      38.010 -30.144  10.944  0.00  0.00    -0.239 NA
ATOM      3  H   GLU A   1      38.013 -29.735   9.988  0.00  0.00    +0.142 HD
ENDBRANCH   1   2
BRANCH   1   4
ATOM      4  C   GLU A   1      37.957 -32.598  11.599  0.00  0.00    +0.224 C 
ATOM      5  O   GLU A   1      37.495 -33.349  12.454  0.00  0.00    -0.287 OA
ENDBRANCH   1   4
BRANCH   1   6
ATOM      6  CB  GLU A   1      36.310 -31.603   9.989  0.00  0.00    +0.037 C 
BRANCH   6   7
ATOM      7  CG  GLU A   1      35.280 -30.493   9.766  0.00  0.00    +0.116 C 
BRANCH   7   8
ATOM      8  CD  GLU A   1      34.433 -30.211  11.003  0.00  0.00    +0.365 C 
ATOM      9  OE2 GLU A   1      34.594 -29.130  11.617  0.00  0.00    -0.246 OA
ATOM     10  OE1 GLU A   1      33.599 -31.069  11.362  0.00  0.00    -0.246 OA
ENDBRANCH   7   8
ENDBRANCH   6   7
ENDBRANCH   1   6
TORSDOF 5
REMARK  Name = ../refined-set-2016/1rp7/1rp7_pocket.pdb
REMARK  268 active torsions:
REMARK  status: ('A' for Active; 'I' for Inactive)
REMARK    1  A    between atoms: _1  and  _3
REMARK    2  A    between atoms: _3  and  _4
REMARK    3  A    between atoms: _7  and  _9
REMARK    4  A    between atoms: _9  and  _10
REMARK    5  A    between atoms: _9  and  _12
REMARK    6  A    between atoms: _12  and  _13
REMARK    7  A    between atoms: _16  and  _18
REMARK    8  A    between atoms: _18  and  _19
REMARK    9  A    between atoms: _18  and  _21
REMARK   10  A    between atoms: _21  and  _22
REMARK   11  A    between atoms: _22  and  _23
REMARK   12  A    between atoms: _26  and  _28
REMARK   13  A    between atoms: _28  and  _29
REMARK   14  A    between atoms: _28  and  _31
REMARK   15  A    between atoms: _31  and  _32
REMARK   16  A    between atoms: _35  and  _37
REMARK   17  A    between atoms: _37  and  _38
REMARK   18  A    between atoms: _40  and  _42
REMARK   19  A    between atoms: _42  and  _43
REMARK   20  A    between atoms: _42  and  _45
REMARK   21  A    between atoms: _45  and  _46
REMARK   22  A    between atoms: _49  and  _51
REMARK   23  A    between atoms: _51  and  _52
REMARK   24  A    between atoms: _51  and  _54
REMARK   25  A    between atoms: _54  and  _55
REMARK   26  A    between atoms: _60  and  _62
REMARK   27  A    between atoms: _62  and  _63
REMARK   28  A    between atoms: _62  and  _65
REMARK   29  A    between atoms: _65  and  _66
REMARK   30  A    between atoms: _66  and  _67
REMARK   31  A    between atoms: _70  and  _72
REMARK   32  A    between atoms: _72  and  _73
REMARK   33  A    between atoms: _72  and  _75
REMARK   34  A    between atoms: _75  and  _76
REMARK   35  A    between atoms: _79  and  _81
REMARK   36  A    between atoms: _81  and  _82
REMARK   37  A    between atoms: _81  and  _84
REMARK   38  A    between atoms: _84  and  _85
REMARK   39  A    between atoms: _90  and  _91
REMARK   40  A    between atoms: _93  and  _95
REMARK   41  A    between atoms: _95  and  _96
REMARK   42  A    between atoms: _95  and  _98
REMARK   43  A    between atoms: _98  and  _99
REMARK   44  A    between atoms: _104  and  _105
REMARK   45  A    between atoms: _107  and  _109
REMARK   46  A    between atoms: _109  and  _110
REMARK   47  A    between atoms: _109  and  _112
REMARK   48  A    between atoms: _112  and  _113
REMARK   49  A    between atoms: _118  and  _119
REMARK   50  A    between atoms: _121  and  _123
REMARK   51  A    between atoms: _123  and  _124
REMARK   52  A    between atoms: _123  and  _126
REMARK   53  A    between atoms: _126  and  _127
REMARK   54  A    between atoms: _127  and  _128
REMARK   55  A    between atoms: _130  and  _132
REMARK   56  A    between atoms: _132  and  _133
REMARK   57  A    between atoms: _132  and  _135
REMARK   58  A    between atoms: _135  and  _136
REMARK   59  A    between atoms: _142  and  _144
REMARK   60  A    between atoms: _144  and  _145
REMARK   61  A    between atoms: _144  and  _147
REMARK   62  A    between atoms: _147  and  _148
REMARK   63  A    between atoms: _148  and  _149
REMARK   64  A    between atoms: _149  and  _150
REMARK   65  A    between atoms: _159  and  _161
REMARK   66  A    between atoms: _161  and  _162
REMARK   67  A    between atoms: _161  and  _164
REMARK   68  A    between atoms: _164  and  _165
REMARK   69  A    between atoms: _165  and  _166
REMARK   70  A    between atoms: _169  and  _171
REMARK   71  A    between atoms: _171  and  _172
REMARK   72  A    between atoms: _171  and  _174
REMARK   73  A    between atoms: _174  and  _175
REMARK   74  A    between atoms: _175  and  _176
REMARK   75  A    between atoms: _181  and  _183
REMARK   76  A    between atoms: _183  and  _184
REMARK   77  A    between atoms: _183  and  _186
REMARK   78  A    between atoms: _186  and  _187
REMARK   79  A    between atoms: _192  and  _194
REMARK   80  A    between atoms: _194  and  _195
REMARK   81  A    between atoms: _194  and  _197
REMARK   82  A    between atoms: _197  and  _198
REMARK   83  A    between atoms: _203  and  _205
REMARK   84  A    between atoms: _205  and  _206
REMARK   85  A    between atoms: _205  and  _208
REMARK   86  A    between atoms: _208  and  _209
REMARK   87  A    between atoms: _209  and  _210
REMARK   88  A    between atoms: _212  and  _214
REMARK   89  A    between atoms: _214  and  _215
REMARK   90  A    between atoms: _218  and  _220
REMARK   91  A    between atoms: _220  and  _221
REMARK   92  A    between atoms: _220  and  _223
REMARK   93  A    between atoms: _223  and  _224
REMARK   94  A    between atoms: _226  and  _228
REMARK   95  A    between atoms: _228  and  _229
REMARK   96  A    between atoms: _228  and  _231
REMARK   97  A    between atoms: _231  and  _232
REMARK   98  A    between atoms: _238  and  _240
REMARK   99  A    between atoms: _240  and  _241
REMARK  100  A    between atoms: _240  and  _243
REMARK  101  A    between atoms: _243  and  _244
REMARK  102  A    between atoms: _244  and  _245
REMARK  103  A    between atoms: _250  and  _252
REMARK  104  A    between atoms: _252  and  _253
REMARK  105  A    between atoms: _252  and  _255
REMARK  106  A    between atoms: _255  and  _256
REMARK  107  A    between atoms: _258  and  _260
REMARK  108  A    between atoms: _260  and  _261
REMARK  109  A    between atoms: _260  and  _263
REMARK  110  A    between atoms: _263  and  _264
REMARK  111  A    between atoms: _266  and  _268
REMARK  112  A    between atoms: _268  and  _269
REMARK  113  A    between atoms: _268  and  _271
REMARK  114  A    between atoms: _271  and  _272
REMARK  115  A    between atoms: _277  and  _278
REMARK  116  A    between atoms: _280  and  _282
REMARK  117  A    between atoms: _282  and  _283
REMARK  118  A    between atoms: _282  and  _285
REMARK  119  A    between atoms: _285  and  _286
REMARK  120  A    between atoms: _286  and  _287
REMARK  121  A    between atoms: _292  and  _294
REMARK  122  A    between atoms: _294  and  _295
REMARK  123  A    between atoms: _297  and  _299
REMARK  124  A    between atoms: _299  and  _300
REMARK  125  A    between atoms: _299  and  _302
REMARK  126  A    between atoms: _302  and  _303
REMARK  127  A    between atoms: _308  and  _310
REMARK  128  A    between atoms: _310  and  _311
REMARK  129  A    between atoms: _310  and  _313
REMARK  130  A    between atoms: _313  and  _314
REMARK  131  A    between atoms: _317  and  _319
REMARK  132  A    between atoms: _319  and  _320
REMARK  133  A    between atoms: _319  and  _322
REMARK  134  A    between atoms: _322  and  _323
REMARK  135  A    between atoms: _323  and  _324
REMARK  136  A    between atoms: _324  and  _325
REMARK  137  A    between atoms: _334  and  _336
REMARK  138  A    between atoms: _336  and  _337
REMARK  139  A    between atoms: _336  and  _339
REMARK  140  A    between atoms: _339  and  _340
REMARK  141  A    between atoms: _345  and  _346
REMARK  142  A    between atoms: _348  and  _350
REMARK  143  A    between atoms: _350  and  _351
REMARK  144  A    between atoms: _350  and  _353
REMARK  145  A    between atoms: _353  and  _354
REMARK  146  A    between atoms: _357  and  _359
REMARK  147  A    between atoms: _359  and  _360
REMARK  148  A    between atoms: _359  and  _362
REMARK  149  A    between atoms: _365  and  _367
REMARK  150  A    between atoms: _367  and  _368
REMARK  151  A    between atoms: _367  and  _370
REMARK  152  A    between atoms: _370  and  _371
REMARK  153  A    between atoms: _373  and  _375
REMARK  154  A    between atoms: _375  and  _376
REMARK  155  A    between atoms: _375  and  _378
REMARK  156  A    between atoms: _378  and  _379
REMARK  157  A    between atoms: _379  and  _380
REMARK  158  A    between atoms: _382  and  _384
REMARK  159  A    between atoms: _384  and  _385
REMARK  160  A    between atoms: _387  and  _389
REMARK  161  A    between atoms: _389  and  _390
REMARK  162  A    between atoms: _389  and  _392
REMARK  163  A    between atoms: _392  and  _393
REMARK  164  A    between atoms: _396  and  _398
REMARK  165  A    between atoms: _398  and  _399
REMARK  166  A    between atoms: _398  and  _401
REMARK  167  A    between atoms: _401  and  _402
REMARK  168  A    between atoms: _408  and  _410
REMARK  169  A    between atoms: _410  and  _411
REMARK  170  A    between atoms: _410  and  _413
REMARK  171  A    between atoms: _413  and  _414
REMARK  172  A    between atoms: _417  and  _419
REMARK  173  A    between atoms: _419  and  _420
REMARK  174  A    between atoms: _422  and  _424
REMARK  175  A    between atoms: _424  and  _425
REMARK  176  A    between atoms: _424  and  _427
REMARK  177  A    between atoms: _427  and  _428
REMARK  178  A    between atoms: _431  and  _433
REMARK  179  A    between atoms: _433  and  _434
REMARK  180  A    between atoms: _436  and  _438
REMARK  181  A    between atoms: _438  and  _439
REMARK  182  A    between atoms: _438  and  _441
REMARK  183  A    between atoms: _441  and  _442
REMARK  184  A    between atoms: _442  and  _443
REMARK  185  A    between atoms: _446  and  _448
REMARK  186  A    between atoms: _448  and  _449
REMARK  187  A    between atoms: _448  and  _451
REMARK  188  A    between atoms: _451  and  _452
REMARK  189  A    between atoms: _452  and  _453
REMARK  190  A    between atoms: _455  and  _457
REMARK  191  A    between atoms: _457  and  _458
REMARK  192  A    between atoms: _457  and  _460
REMARK  193  A    between atoms: _460  and  _461
REMARK  194  A    between atoms: _464  and  _466
REMARK  195  A    between atoms: _466  and  _467
REMARK  196  A    between atoms: _466  and  _469
REMARK  197  A    between atoms: _469  and  _470
REMARK  198  A    between atoms: _470  and  _471
REMARK  199  A    between atoms: _474  and  _476
REMARK  200  A    between atoms: _476  and  _477
REMARK  201  A    between atoms: _476  and  _479
REMARK  202  A    between atoms: _479  and  _480
REMARK  203  A    between atoms: _480  and  _481
REMARK  204  A    between atoms: _484  and  _486
REMARK  205  A    between atoms: _486  and  _487
REMARK  206  A    between atoms: _486  and  _489
REMARK  207  A    between atoms: _489  and  _490
REMARK  208  A    between atoms: _492  and  _494
REMARK  209  A    between atoms: _494  and  _495
REMARK  210  A    between atoms: _494  and  _497
REMARK  211  A    between atoms: _497  and  _498
REMARK  212  A    between atoms: _501  and  _503
REMARK  213  A    between atoms: _503  and  _504
REMARK  214  A    between atoms: _503  and  _506
REMARK  215  A    between atoms: _506  and  _507
REMARK  216  A    between atoms: _512  and  _514
REMARK  217  A    between atoms: _514  and  _515
REMARK  218  A    between atoms: _514  and  _517
REMARK  219  A    between atoms: _519  and  _521
REMARK  220  A    between atoms: _525  and  _527
REMARK  221  A    between atoms: _532  and  _535
REMARK  222  A    between atoms: _535  and  _536
REMARK  223  A    between atoms: _541  and  _544
REMARK  224  A    between atoms: _542  and  _551
REMARK  225  A    between atoms: _544  and  _545
REMARK  226  A    between atoms: _545  and  _546
REMARK  227  A    between atoms: _551  and  _553
REMARK  228  A    between atoms: _553  and  _554
REMARK  229  A    between atoms: _553  and  _556
REMARK  230  A    between atoms: _556  and  _557
REMARK  231  A    between atoms: _557  and  _558
REMARK  232  A    between atoms: _558  and  _559
REMARK  233  A    between atoms: _568  and  _570
REMARK  234  A    between atoms: _570  and  _571
REMARK  235  A    between atoms: _570  and  _573
REMARK  236  A    between atoms: _573  and  _574
REMARK  237  A    between atoms: _577  and  _579
REMARK  238  A    between atoms: _579  and  _580
REMARK  239  A    between atoms: _579  and  _582
REMARK  240  A    between atoms: _582  and  _583
REMARK  241  A    between atoms: _586  and  _588
REMARK  242  A    between atoms: _588  and  _589
REMARK  243  A    between atoms: _592  and  _593
REMARK  244  A    between atoms: _598  and  _600
REMARK  245  A    between atoms: _600  and  _601
REMARK  246  A    between atoms: _600  and  _603
REMARK  247  A    between atoms: _606  and  _608
REMARK  248  A    between atoms: _608  and  _609
REMARK  249  A    between atoms: _608  and  _611
REMARK  250  A    between atoms: _611  and  _612
REMARK  251  A    between atoms: _612  and  _613
REMARK  252  A    between atoms: _618  and  _620
REMARK  253  A    between atoms: _620  and  _621
REMARK  254  A    between atoms: _620  and  _623
REMARK  255  A    between atoms: _623  and  _624
REMARK  256  A    between atoms: _627  and  _629
REMARK  257  A    between atoms: _629  and  _630
REMARK  258  A    between atoms: _629  and  _632
REMARK  259  A    between atoms: _632  and  _633
REMARK  260  A    between atoms: _633  and  _634
REMARK  261  A    between atoms: _634  and  _635
REMARK  262  A    between atoms: _635  and  _636
REMARK  263  A    between atoms: _640  and  _642
REMARK  264  A    between atoms: _642  and  _643
REMARK  265  A    between atoms: _645  and  _647
REMARK  266  A    between atoms: _647  and  _648
REMARK  267  A    between atoms: _647  and  _650
REMARK  268  A    between atoms: _650  and  _651
REMARK                            x       y       z     vdW  Elec       q    Type
REMARK                         _______ _______ _______ _____ _____    ______ ____
ROOT
ATOM      1  C   GLN A   1      35.884 -37.876   8.989  0.00  0.00    +0.238 C 
ATOM      2  N   HIS A   2      36.545 -36.756   8.724  0.00  0.00    -0.298 N 
ATOM      3  H   HIS A   2      37.451 -36.581   9.203  0.00  0.00    +0.150 HD
ATOM      4  O   GLN A   1      34.818 -38.178   8.435  0.00  0.00    -0.274 OA
ENDROOT
BRANCH   1   5
ATOM      5  CA  GLN A   1      36.529 -38.812  10.010  0.00  0.00    +0.145 C 
BRANCH   5   6
ATOM      6  N   GLN A   1      37.684 -38.264  10.733  0.00  0.00    -0.238 NA
ATOM      7  H   GLN A   1      37.538 -37.798  11.651  0.00  0.00    +0.142 HD
ENDBRANCH   5   6
BRANCH   5   8
ATOM      8  CB  GLN A   1      35.473 -39.273  11.010  0.00  0.00    +0.036 C 
BRANCH   8   9
ATOM      9  CG  GLN A   1      35.860 -40.551  11.748  0.00  0.00    +0.087 C 
BRANCH   9  10
ATOM     10  CD  GLN A   1      34.760 -41.046  12.663  0.00  0.00    +0.219 C 
ATOM     11  OE1 GLN A   1      34.567 -40.524  13.764  0.00  0.00    -0.275 OA
ATOM     12  NE2 GLN A   1      34.032 -42.065  12.217  0.00  0.00    -0.329 N 
ATOM     13 HE21 GLN A   1      33.265 -42.452  12.803  0.00  0.00    +0.145 HD
ATOM     14 HE22 GLN A   1      34.229 -42.475  11.282  0.00  0.00    +0.145 HD
ENDBRANCH   9  10
ENDBRANCH   8   9
ENDBRANCH   5   8
ENDBRANCH   1   5
BRANCH   2  15
ATOM     15  CA  HIS A   2      36.042 -35.766   7.785  0.00  0.00    +0.143 C 
BRANCH  15  16
ATOM     16  C   HIS A   2      37.002 -35.454   6.653  0.00  0.00    +0.227 C 
ATOM     17  O   HIS A   2      36.579 -35.254   5.516  0.00  0.00    -0.286 OA
ENDBRANCH  15  16
BRANCH  15  18
ATOM     18  CB  HIS A   2      35.730 -34.466   8.520  0.00  0.00    +0.075 C 
BRANCH  18  19
ATOM     19  CG  HIS A   2      34.378 -34.442   9.161  0.00  0.00    +0.082 A 
ATOM     20  ND1 HIS A   2      34.141 -34.961  10.414  0.00  0.00    -0.227 NA
ATOM     21  CE1 HIS A   2      32.879 -34.754  10.741  0.00  0.00    +0.199 A 
ATOM     22  NE2 HIS A   2      32.288 -34.122   9.743  0.00  0.00    -0.221 NA
ATOM     23  CD2 HIS A   2      33.203 -33.917   8.741  0.00  0.00    +0.115 A 
ENDBRANCH  18  19
ENDBRANCH  15  18
ENDBRANCH   2  15
TORSDOF 9
REMARK  Name = ../refined-set-2016/1rp7/1rp7_pocket.pdb
REMARK  268 active torsions:
REMARK  status: ('A' for Active; 'I' for Inactive)
REMARK    1  A    between atoms: _1  and  _3
REMARK    2  A    between atoms: _3  and  _4
REMARK    3  A    between atoms: _7  and  _9
REMARK    4  A    between atoms: _9  and  _10
REMARK    5  A    between atoms: _9  and  _12
REMARK    6  A    between atoms: _12  and  _13
REMARK    7  A    between atoms: _16  and  _18
REMARK    8  A    between atoms: _18  and  _19
REMARK    9  A    between atoms: _18  and  _21
REMARK   10  A    between atoms: _21  and  _22
REMARK   11  A    between atoms: _22  and  _23
REMARK   12  A    between atoms: _26  and  _28
REMARK   13  A    between atoms: _28  and  _29
REMARK   14  A    between atoms: _28  and  _31
REMARK   15  A    between atoms: _31  and  _32
REMARK   16  A    between atoms: _35  and  _37
REMARK   17  A    between atoms: _37  and  _38
REMARK   18  A    between atoms: _40  and  _42
REMARK   19  A    between atoms: _42  and  _43
REMARK   20  A    between atoms: _42  and  _45
REMARK   21  A    between atoms: _45  and  _46
REMARK   22  A    between atoms: _49  and  _51
REMARK   23  A    between atoms: _51  and  _52
REMARK   24  A    between atoms: _51  and  _54
REMARK   25  A    between atoms: _54  and  _55
REMARK   26  A    between atoms: _60  and  _62
REMARK   27  A    between atoms: _62  and  _63
REMARK   28  A    between atoms: _62  and  _65
REMARK   29  A    between atoms: _65  and  _66
REMARK   30  A    between atoms: _66  and  _67
REMARK   31  A    between atoms: _70  and  _72
REMARK   32  A    between atoms: _72  and  _73
REMARK   33  A    between atoms: _72  and  _75
REMARK   34  A    between atoms: _75  and  _76
REMARK   35  A    between atoms: _79  and  _81
REMARK   36  A    between atoms: _81  and  _82
REMARK   37  A    between atoms: _81  and  _84
REMARK   38  A    between atoms: _84  and  _85
REMARK   39  A    between atoms: _90  and  _91
REMARK   40  A    between atoms: _93  and  _95
REMARK   41  A    between atoms: _95  and  _96
REMARK   42  A    between atoms: _95  and  _98
REMARK   43  A    between atoms: _98  and  _99
REMARK   44  A    between atoms: _104  and  _105
REMARK   45  A    between atoms: _107  and  _109
REMARK   46  A    between atoms: _109  and  _110
REMARK   47  A    between atoms: _109  and  _112
REMARK   48  A    between atoms: _112  and  _113
REMARK   49  A    between atoms: _118  and  _119
REMARK   50  A    between atoms: _121  and  _123
REMARK   51  A    between atoms: _123  and  _124
REMARK   52  A    between atoms: _123  and  _126
REMARK   53  A    between atoms: _126  and  _127
REMARK   54  A    between atoms: _127  and  _128
REMARK   55  A    between atoms: _130  and  _132
REMARK   56  A    between atoms: _132  and  _133
REMARK   57  A    between atoms: _132  and  _135
REMARK   58  A    between atoms: _135  and  _136
REMARK   59  A    between atoms: _142  and  _144
REMARK   60  A    between atoms: _144  and  _145
REMARK   61  A    between atoms: _144  and  _147
REMARK   62  A    between atoms: _147  and  _148
REMARK   63  A    between atoms: _148  and  _149
REMARK   64  A    between atoms: _149  and  _150
REMARK   65  A    between atoms: _159  and  _161
REMARK   66  A    between atoms: _161  and  _162
REMARK   67  A    between atoms: _161  and  _164
REMARK   68  A    between atoms: _164  and  _165
REMARK   69  A    between atoms: _165  and  _166
REMARK   70  A    between atoms: _169  and  _171
REMARK   71  A    between atoms: _171  and  _172
REMARK   72  A    between atoms: _171  and  _174
REMARK   73  A    between atoms: _174  and  _175
REMARK   74  A    between atoms: _175  and  _176
REMARK   75  A    between atoms: _181  and  _183
REMARK   76  A    between atoms: _183  and  _184
REMARK   77  A    between atoms: _183  and  _186
REMARK   78  A    between atoms: _186  and  _187
REMARK   79  A    between atoms: _192  and  _194
REMARK   80  A    between atoms: _194  and  _195
REMARK   81  A    between atoms: _194  and  _197
REMARK   82  A    between atoms: _197  and  _198
REMARK   83  A    between atoms: _203  and  _205
REMARK   84  A    between atoms: _205  and  _206
REMARK   85  A    between atoms: _205  and  _208
REMARK   86  A    between atoms: _208  and  _209
REMARK   87  A    between atoms: _209  and  _210
REMARK   88  A    between atoms: _212  and  _214
REMARK   89  A    between atoms: _214  and  _215
REMARK   90  A    between atoms: _218  and  _220
REMARK   91  A    between atoms: _220  and  _221
REMARK   92  A    between atoms: _220  and  _223
REMARK   93  A    between atoms: _223  and  _224
REMARK   94  A    between atoms: _226  and  _228
REMARK   95  A    between atoms: _228  and  _229
REMARK   96  A    between atoms: _228  and  _231
REMARK   97  A    between atoms: _231  and  _232
REMARK   98  A    between atoms: _238  and  _240
REMARK   99  A    between atoms: _240  and  _241
REMARK  100  A    between atoms: _240  and  _243
REMARK  101  A    between atoms: _243  and  _244
REMARK  102  A    between atoms: _244  and  _245
REMARK  103  A    between atoms: _250  and  _252
REMARK  104  A    between atoms: _252  and  _253
REMARK  105  A    between atoms: _252  and  _255
REMARK  106  A    between atoms: _255  and  _256
REMARK  107  A    between atoms: _258  and  _260
REMARK  108  A    between atoms: _260  and  _261
REMARK  109  A    between atoms: _260  and  _263
REMARK  110  A    between atoms: _263  and  _264
REMARK  111  A    between atoms: _266  and  _268
REMARK  112  A    between atoms: _268  and  _269
REMARK  113  A    between atoms: _268  and  _271
REMARK  114  A    between atoms: _271  and  _272
REMARK  115  A    between atoms: _277  and  _278
REMARK  116  A    between atoms: _280  and  _282
REMARK  117  A    between atoms: _282  and  _283
REMARK  118  A    between atoms: _282  and  _285
REMARK  119  A    between atoms: _285  and  _286
REMARK  120  A    between atoms: _286  and  _287
REMARK  121  A    between atoms: _292  and  _294
REMARK  122  A    between atoms: _294  and  _295
REMARK  123  A    between atoms: _297  and  _299
REMARK  124  A    between atoms: _299  and  _300
REMARK  125  A    between atoms: _299  and  _302
REMARK  126  A    between atoms: _302  and  _303
REMARK  127  A    between atoms: _308  and  _310
REMARK  128  A    between atoms: _310  and  _311
REMARK  129  A    between atoms: _310  and  _313
REMARK  130  A    between atoms: _313  and  _314
REMARK  131  A    between atoms: _317  and  _319
REMARK  132  A    between atoms: _319  and  _320
REMARK  133  A    between atoms: _319  and  _322
REMARK  134  A    between atoms: _322  and  _323
REMARK  135  A    between atoms: _323  and  _324
REMARK  136  A    between atoms: _324  and  _325
REMARK  137  A    between atoms: _334  and  _336
REMARK  138  A    between atoms: _336  and  _337
REMARK  139  A    between atoms: _336  and  _339
REMARK  140  A    between atoms: _339  and  _340
REMARK  141  A    between atoms: _345  and  _346
REMARK  142  A    between atoms: _348  and  _350
REMARK  143  A    between atoms: _350  and  _351
REMARK  144  A    between atoms: _350  and  _353
REMARK  145  A    between atoms: _353  and  _354
REMARK  146  A    between atoms: _357  and  _359
REMARK  147  A    between atoms: _359  and  _360
REMARK  148  A    between atoms: _359  and  _362
REMARK  149  A    between atoms: _365  and  _367
REMARK  150  A    between atoms: _367  and  _368
REMARK  151  A    between atoms: _367  and  _370
REMARK  152  A    between atoms: _370  and  _371
REMARK  153  A    between atoms: _373  and  _375
REMARK  154  A    between atoms: _375  and  _376
REMARK  155  A    between atoms: _375  and  _378
REMARK  156  A    between atoms: _378  and  _379
REMARK  157  A    between atoms: _379  and  _380
REMARK  158  A    between atoms: _382  and  _384
REMARK  159  A    between atoms: _384  and  _385
REMARK  160  A    between atoms: _387  and  _389
REMARK  161  A    between atoms: _389  and  _390
REMARK  162  A    between atoms: _389  and  _392
REMARK  163  A    between atoms: _392  and  _393
REMARK  164  A    between atoms: _396  and  _398
REMARK  165  A    between atoms: _398  and  _399
REMARK  166  A    between atoms: _398  and  _401
REMARK  167  A    between atoms: _401  and  _402
REMARK  168  A    between atoms: _408  and  _410
REMARK  169  A    between atoms: _410  and  _411
REMARK  170  A    between atoms: _410  and  _413
REMARK  171  A    between atoms: _413  and  _414
REMARK  172  A    between atoms: _417  and  _419
REMARK  173  A    between atoms: _419  and  _420
REMARK  174  A    between atoms: _422  and  _424
REMARK  175  A    between atoms: _424  and  _425
REMARK  176  A    between atoms: _424  and  _427
REMARK  177  A    between atoms: _427  and  _428
REMARK  178  A    between atoms: _431  and  _433
REMARK  179  A    between atoms: _433  and  _434
REMARK  180  A    between atoms: _436  and  _438
REMARK  181  A    between atoms: _438  and  _439
REMARK  182  A    between atoms: _438  and  _441
REMARK  183  A    between atoms: _441  and  _442
REMARK  184  A    between atoms: _442  and  _443
REMARK  185  A    between atoms: _446  and  _448
REMARK  186  A    between atoms: _448  and  _449
REMARK  187  A    between atoms: _448  and  _451
REMARK  188  A    between atoms: _451  and  _452
REMARK  189  A    between atoms: _452  and  _453
REMARK  190  A    between atoms: _455  and  _457
REMARK  191  A    between atoms: _457  and  _458
REMARK  192  A    between atoms: _457  and  _460
REMARK  193  A    between atoms: _460  and  _461
REMARK  194  A    between atoms: _464  and  _466
REMARK  195  A    between atoms: _466  and  _467
REMARK  196  A    between atoms: _466  and  _469
REMARK  197  A    between atoms: _469  and  _470
REMARK  198  A    between atoms: _470  and  _471
REMARK  199  A    between atoms: _474  and  _476
REMARK  200  A    between atoms: _476  and  _477
REMARK  201  A    between atoms: _476  and  _479
REMARK  202  A    between atoms: _479  and  _480
REMARK  203  A    between atoms: _480  and  _481
REMARK  204  A    between atoms: _484  and  _486
REMARK  205  A    between atoms: _486  and  _487
REMARK  206  A    between atoms: _486  and  _489
REMARK  207  A    between atoms: _489  and  _490
REMARK  208  A    between atoms: _492  and  _494
REMARK  209  A    between atoms: _494  and  _495
REMARK  210  A    between atoms: _494  and  _497
REMARK  211  A    between atoms: _497  and  _498
REMARK  212  A    between atoms: _501  and  _503
REMARK  213  A    between atoms: _503  and  _504
REMARK  214  A    between atoms: _503  and  _506
REMARK  215  A    between atoms: _506  and  _507
REMARK  216  A    between atoms: _512  and  _514
REMARK  217  A    between atoms: _514  and  _515
REMARK  218  A    between atoms: _514  and  _517
REMARK  219  A    between atoms: _519  and  _521
REMARK  220  A    between atoms: _525  and  _527
REMARK  221  A    between atoms: _532  and  _535
REMARK  222  A    between atoms: _535  and  _536
REMARK  223  A    between atoms: _541  and  _544
REMARK  224  A    between atoms: _542  and  _551
REMARK  225  A    between atoms: _544  and  _545
REMARK  226  A    between atoms: _545  and  _546
REMARK  227  A    between atoms: _551  and  _553
REMARK  228  A    between atoms: _553  and  _554
REMARK  229  A    between atoms: _553  and  _556
REMARK  230  A    between atoms: _556  and  _557
REMARK  231  A    between atoms: _557  and  _558
REMARK  232  A    between atoms: _558  and  _559
REMARK  233  A    between atoms: _568  and  _570
REMARK  234  A    between atoms: _570  and  _571
REMARK  235  A    between atoms: _570  and  _573
REMARK  236  A    between atoms: _573  and  _574
REMARK  237  A    between atoms: _577  and  _579
REMARK  238  A    between atoms: _579  and  _580
REMARK  239  A    between atoms: _579  and  _582
REMARK  240  A    between atoms: _582  and  _583
REMARK  241  A    between atoms: _586  and  _588
REMARK  242  A    between atoms: _588  and  _589
REMARK  243  A    between atoms: _592  and  _593
REMARK  244  A    between atoms: _598  and  _600
REMARK  245  A    between atoms: _600  and  _601
REMARK  246  A    between atoms: _600  and  _603
REMARK  247  A    between atoms: _606  and  _608
REMARK  248  A    between atoms: _608  and  _609
REMARK  249  A    between atoms: _608  and  _611
REMARK  250  A    between atoms: _611  and  _612
REMARK  251  A    between atoms: _612  and  _613
REMARK  252  A    between atoms: _618  and  _620
REMARK  253  A    between atoms: _620  and  _621
REMARK  254  A    between atoms: _620  and  _623
REMARK  255  A    between atoms: _623  and  _624
REMARK  256  A    between atoms: _627  and  _629
REMARK  257  A    between atoms: _629  and  _630
REMARK  258  A    between atoms: _629  and  _632
REMARK  259  A    between atoms: _632  and  _633
REMARK  260  A    between atoms: _633  and  _634
REMARK  261  A    between atoms: _634  and  _635
REMARK  262  A    between atoms: _635  and  _636
REMARK  263  A    between atoms: _640  and  _642
REMARK  264  A    between atoms: _642  and  _643
REMARK  265  A    between atoms: _645  and  _647
REMARK  266  A    between atoms: _647  and  _648
REMARK  267  A    between atoms: _647  and  _650
REMARK  268  A    between atoms: _650  and  _651
REMARK                            x       y       z     vdW  Elec       q    Type
REMARK                         _______ _______ _______ _____ _____    ______ ____
ROOT
ATOM      1  CA  PHE A   5      26.317 -29.229  23.891  0.00  0.00    +0.153 C 
ENDROOT
BRANCH   1   4
ATOM      2  C   SER A   4      24.781 -28.995  22.055  0.00  0.00    +0.243 C 
ATOM      3  O   SER A   4      23.869 -29.413  22.769  0.00  0.00    -0.273 OA
ATOM      4  N   PHE A   5      26.021 -28.864  22.513  0.00  0.00    -0.297 N 
ATOM      5  H   PHE A   5      26.774 -28.504  21.893  0.00  0.00    +0.150 HD
BRANCH   2   6
ATOM      6  CA  SER A   4      24.505 -28.606  20.598  0.00  0.00    +0.178 C 
BRANCH   6   9
ATOM      7  C   ALA A   3      24.311 -26.213  20.887  0.00  0.00    +0.241 C 
ATOM      8  O   ALA A   3      23.489 -26.361  21.793  0.00  0.00    -0.273 OA
ATOM      9  N   SER A   4      24.867 -27.238  20.256  0.00  0.00    -0.295 N 
ATOM     10  H   SER A   4      25.569 -27.063  19.509  0.00  0.00    +0.150 HD
BRANCH   7  11
ATOM     11  CA  ALA A   3      24.734 -24.816  20.442  0.00  0.00    +0.149 C 
ATOM     12  CB  ALA A   3      24.015 -24.450  19.158  0.00  0.00    +0.031 C 
BRANCH  11  15
ATOM     13  C   MET A   2      27.042 -24.950  21.225  0.00  0.00    +0.241 C 
ATOM     14  O   MET A   2      26.696 -25.398  22.320  0.00  0.00    -0.273 OA
ATOM     15  N   ALA A   3      26.174 -24.653  20.264  0.00  0.00    -0.297 N 
ATOM     16  H   ALA A   3      26.532 -24.293  19.356  0.00  0.00    +0.150 HD
BRANCH  13  17
ATOM     17  CA  MET A   2      28.521 -24.699  20.909  0.00  0.00    +0.149 C 
BRANCH  17  20
ATOM     18  C   HIS A   1      29.984 -25.872  19.335  0.00  0.00    +0.239 C 
ATOM     19  O   HIS A   1      30.762 -26.222  20.220  0.00  0.00    -0.274 OA
ATOM     20  N   MET A   2      28.889 -25.147  19.566  0.00  0.00    -0.297 N 
ATOM     21  H   MET A   2      28.277 -24.892  18.765  0.00  0.00    +0.150 HD
BRANCH  18  22
ATOM     22  CA  HIS A   1      30.234 -26.274  17.890  0.00  0.00    +0.151 C 
BRANCH  22  23
ATOM     23  N   HIS A   1      31.644 -26.609  17.684  0.00  0.00    -0.238 NA
ATOM     24  H   HIS A   1      32.072 -27.385  18.228  0.00  0.00    +0.142 HD
ENDBRANCH  22  23
BRANCH  22  25
ATOM     25  CB  HIS A   1      29.327 -27.467  17.539  0.00  0.00    +0.074 C 
BRANCH  25  26
ATOM     26  CG  HIS A   1      29.729 -28.198  16.293  0.00  0.00    +0.082 A 
ATOM     27  CD2 HIS A   1      30.855 -28.883  15.980  0.00  0.00    +0.115 A 
ATOM     28  NE2 HIS A   1      30.679 -29.399  14.718  0.00  0.00    -0.221 NA
ATOM     29  CE1 HIS A   1      29.488 -29.042  14.270  0.00  0.00    +0.199 A 
ATOM     30  ND1 HIS A   1      28.895 -28.317  15.201  0.00  0.00    -0.227 NA
ENDBRANCH  25  26
ENDBRANCH  22  25
ENDBRANCH  18  22
ENDBRANCH  17  20
BRANCH  17  31
ATOM     31  CB  MET A   2      28.808 -23.199  21.072  0.00  0.00    +0.041 C 
BRANCH  31  32
ATOM     32  CG  MET A   2      30.264 -22.821  21.354  0.00  0.00    +0.060 C 
BRANCH  32  33
ATOM     33  SD  MET A   2      30.641 -21.114  20.848  0.00  0.00    -0.139 S 
ATOM     34  CE  MET A   2      29.845 -20.205  22.101  0.00  0.00    +0.069 C 
ENDBRANCH  32  33
ENDBRANCH  31  32
ENDBRANCH  17  31
ENDBRANCH  13  17
ENDBRANCH  11  15
ENDBRANCH   7  11
ENDBRANCH   6   9
BRANCH   6  35
ATOM     35  CB  SER A   4      25.203 -29.584  19.655  0.00  0.00    +0.166 C 
BRANCH  35  36
ATOM     36  OG  SER A   4      24.745 -30.906  19.886  0.00  0.00    -0.380 OA
ATOM     37  H   SER A   4      23.768 -30.948  19.729  0.00  0.00    +0.211 HD
ENDBRANCH  35  36
ENDBRANCH   6  35
ENDBRANCH   2   6
ENDBRANCH   1   4
BRANCH   1  38
ATOM     38  C   PHE A   5      25.512 -28.420  24.914  0.00  0.00    +0.241 C 
ATOM     39  O   PHE A   5      25.223 -28.904  26.006  0.00  0.00    -0.273 OA
ATOM     40  N   GLN A   6      25.148 -27.189  24.563  0.00  0.00    -0.297 N 
ATOM     41  H   GLN A   6      25.425 -26.824  23.629  0.00  0.00    +0.150 HD
BRANCH  40  42
ATOM     42  CA  GLN A   6      24.366 -26.337  25.463  0.00  0.00    +0.149 C 
BRANCH  42  43
ATOM     43  C   GLN A   6      23.004 -26.977  25.708  0.00  0.00    +0.241 C 
ATOM     44  O   GLN A   6      22.433 -26.856  26.797  0.00  0.00    -0.273 OA
ATOM     45  N   SER A   7      22.492 -27.657  24.686  0.00  0.00    -0.295 N 
ATOM     46  H   SER A   7      23.031 -27.719  23.799  0.00  0.00    +0.150 HD
BRANCH  45  47
ATOM     47  CA  SER A   7      21.197 -28.317  24.777  0.00  0.00    +0.178 C 
BRANCH  47  48
ATOM     48  C   SER A   7      21.213 -29.640  25.564  0.00  0.00    +0.243 C 
ATOM     49  O   SER A   7      20.197 -30.039  26.138  0.00  0.00    -0.273 OA
ATOM     50  N   SER A   8      22.366 -30.303  25.621  0.00  0.00    -0.296 N 
ATOM     51  H   SER A   8      23.207 -29.900  25.162  0.00  0.00    +0.150 HD
BRANCH  50  52
ATOM     52  CA  SER A   8      22.476 -31.586  26.315  0.00  0.00    +0.166 C 
BRANCH  52  53
ATOM     53  CB  SER A   8      23.401 -31.615  27.528  0.00  0.00    +0.229 C 
ATOM     54  OG  SER A   8      23.624 -32.676  28.097  0.00  0.00    -0.286 OA
ENDBRANCH  52  53
BRANCH  52  55
ATOM     55  C   SER A   8      22.945 -32.652  25.329  0.00  0.00    +0.165 C 
BRANCH  55  56
ATOM     56  O   SER A   8      24.200 -32.291  24.768  0.00  0.00    -0.380 OA
ATOM     57  H   SER A   8      24.111 -31.428  24.292  0.00  0.00    +0.211 HD
ENDBRANCH  55  56
ENDBRANCH  52  55
ENDBRANCH  50  52
ENDBRANCH  47  48
BRANCH  47  58
ATOM     58  CB  SER A   7      20.628 -28.550  23.369  0.00  0.00    +0.166 C 
BRANCH  58  59
ATOM     59  OG  SER A   7      21.275 -29.615  22.691  0.00  0.00    -0.380 OA
ATOM     60  H   SER A   7      22.239 -29.410  22.601  0.00  0.00    +0.211 HD
ENDBRANCH  58  59
ENDBRANCH  47  58
ENDBRANCH  45  47
ENDBRANCH  42  43
BRANCH  42  61
ATOM     61  CB  GLN A   6      24.167 -24.944  24.854  0.00  0.00    +0.039 C 
BRANCH  61  62
ATOM     62  CG  GLN A   6      25.265 -23.937  25.176  0.00  0.00    +0.087 C 
BRANCH  62  63
ATOM     63  CD  GLN A   6      25.391 -23.648  26.664  0.00  0.00    +0.219 C 
ATOM     64  OE1 GLN A   6      26.209 -24.255  27.352  0.00  0.00    -0.275 OA
ATOM     65  NE2 GLN A   6      24.584 -22.711  27.164  0.00  0.00    -0.329 N 
ATOM     66 HE21 GLN A   6      24.632 -22.468  28.174  0.00  0.00    +0.145 HD
ATOM     67 HE22 GLN A   6      23.907 -22.223  26.544  0.00  0.00    +0.145 HD
ENDBRANCH  62  63
ENDBRANCH  61  62
ENDBRANCH  42  61
ENDBRANCH  40  42
ENDBRANCH   1  38
BRANCH   1  68
ATOM     68  CB  PHE A   5      27.805 -29.081  24.184  0.00  0.00    +0.055 C 
BRANCH  68  69
ATOM     69  CG  PHE A   5      28.151 -29.344  25.620  0.00  0.00    -0.020 A 
ATOM     70  CD2 PHE A   5      28.554 -28.306  26.455  0.00  0.00    -0.004 A 
ATOM     71  CE2 PHE A   5      28.841 -28.534  27.802  0.00  0.00    -0.000 A 
ATOM     72  CZ  PHE A   5      28.725 -29.823  28.324  0.00  0.00    -0.000 A 
ATOM     73  CE1 PHE A   5      28.325 -30.873  27.497  0.00  0.00    -0.000 A 
ATOM     74  CD1 PHE A   5      28.040 -30.628  26.148  0.00  0.00    -0.004 A 
ENDBRANCH  68  69
ENDBRANCH   1  68
TORSDOF 32
REMARK  Name = ../refined-set-2016/1rp7/1rp7_pocket.pdb
REMARK  268 active torsions:
REMARK  status: ('A' for Active; 'I' for Inactive)
REMARK    1  A    between atoms: _1  and  _3
REMARK    2  A    between atoms: _3  and  _4
REMARK    3  A    between atoms: _7  and  _9
REMARK    4  A    between atoms: _9  and  _10
REMARK    5  A    between atoms: _9  and  _12
REMARK    6  A    between atoms: _12  and  _13
REMARK    7  A    between atoms: _16  and  _18
REMARK    8  A    between atoms: _18  and  _19
REMARK    9  A    between atoms: _18  and  _21
REMARK   10  A    between atoms: _21  and  _22
REMARK   11  A    between atoms: _22  and  _23
REMARK   12  A    between atoms: _26  and  _28
REMARK   13  A    between atoms: _28  and  _29
REMARK   14  A    between atoms: _28  and  _31
REMARK   15  A    between atoms: _31  and  _32
REMARK   16  A    between atoms: _35  and  _37
REMARK   17  A    between atoms: _37  and  _38
REMARK   18  A    between atoms: _40  and  _42
REMARK   19  A    between atoms: _42  and  _43
REMARK   20  A    between atoms: _42  and  _45
REMARK   21  A    between atoms: _45  and  _46
REMARK   22  A    between atoms: _49  and  _51
REMARK   23  A    between atoms: _51  and  _52
REMARK   24  A    between atoms: _51  and  _54
REMARK   25  A    between atoms: _54  and  _55
REMARK   26  A    between atoms: _60  and  _62
REMARK   27  A    between atoms: _62  and  _63
REMARK   28  A    between atoms: _62  and  _65
REMARK   29  A    between atoms: _65  and  _66
REMARK   30  A    between atoms: _66  and  _67
REMARK   31  A    between atoms: _70  and  _72
REMARK   32  A    between atoms: _72  and  _73
REMARK   33  A    between atoms: _72  and  _75
REMARK   34  A    between atoms: _75  and  _76
REMARK   35  A    between atoms: _79  and  _81
REMARK   36  A    between atoms: _81  and  _82
REMARK   37  A    between atoms: _81  and  _84
REMARK   38  A    between atoms: _84  and  _85
REMARK   39  A    between atoms: _90  and  _91
REMARK   40  A    between atoms: _93  and  _95
REMARK   41  A    between atoms: _95  and  _96
REMARK   42  A    between atoms: _95  and  _98
REMARK   43  A    between atoms: _98  and  _99
REMARK   44  A    between atoms: _104  and  _105
REMARK   45  A    between atoms: _107  and  _109
REMARK   46  A    between atoms: _109  and  _110
REMARK   47  A    between atoms: _109  and  _112
REMARK   48  A    between atoms: _112  and  _113
REMARK   49  A    between atoms: _118  and  _119
REMARK   50  A    between atoms: _121  and  _123
REMARK   51  A    between atoms: _123  and  _124
REMARK   52  A    between atoms: _123  and  _126
REMARK   53  A    between atoms: _126  and  _127
REMARK   54  A    between atoms: _127  and  _128
REMARK   55  A    between atoms: _130  and  _132
REMARK   56  A    between atoms: _132  and  _133
REMARK   57  A    between atoms: _132  and  _135
REMARK   58  A    between atoms: _135  and  _136
REMARK   59  A    between atoms: _142  and  _144
REMARK   60  A    between atoms: _144  and  _145
REMARK   61  A    between atoms: _144  and  _147
REMARK   62  A    between atoms: _147  and  _148
REMARK   63  A    between atoms: _148  and  _149
REMARK   64  A    between atoms: _149  and  _150
REMARK   65  A    between atoms: _159  and  _161
REMARK   66  A    between atoms: _161  and  _162
REMARK   67  A    between atoms: _161  and  _164
REMARK   68  A    between atoms: _164  and  _165
REMARK   69  A    between atoms: _165  and  _166
REMARK   70  A    between atoms: _169  and  _171
REMARK   71  A    between atoms: _171  and  _172
REMARK   72  A    between atoms: _171  and  _174
REMARK   73  A    between atoms: _174  and  _175
REMARK   74  A    between atoms: _175  and  _176
REMARK   75  A    between atoms: _181  and  _183
REMARK   76  A    between atoms: _183  and  _184
REMARK   77  A    between atoms: _183  and  _186
REMARK   78  A    between atoms: _186  and  _187
REMARK   79  A    between atoms: _192  and  _194
REMARK   80  A    between atoms: _194  and  _195
REMARK   81  A    between atoms: _194  and  _197
REMARK   82  A    between atoms: _197  and  _198
REMARK   83  A    between atoms: _203  and  _205
REMARK   84  A    between atoms: _205  and  _206
REMARK   85  A    between atoms: _205  and  _208
REMARK   86  A    between atoms: _208  and  _209
REMARK   87  A    between atoms: _209  and  _210
REMARK   88  A    between atoms: _212  and  _214
REMARK   89  A    between atoms: _214  and  _215
REMARK   90  A    between atoms: _218  and  _220
REMARK   91  A    between atoms: _220  and  _221
REMARK   92  A    between atoms: _220  and  _223
REMARK   93  A    between atoms: _223  and  _224
REMARK   94  A    between atoms: _226  and  _228
REMARK   95  A    between atoms: _228  and  _229
REMARK   96  A    between atoms: _228  and  _231
REMARK   97  A    between atoms: _231  and  _232
REMARK   98  A    between atoms: _238  and  _240
REMARK   99  A    between atoms: _240  and  _241
REMARK  100  A    between atoms: _240  and  _243
REMARK  101  A    between atoms: _243  and  _244
REMARK  102  A    between atoms: _244  and  _245
REMARK  103  A    between atoms: _250  and  _252
REMARK  104  A    between atoms: _252  and  _253
REMARK  105  A    between atoms: _252  and  _255
REMARK  106  A    between atoms: _255  and  _256
REMARK  107  A    between atoms: _258  and  _260
REMARK  108  A    between atoms: _260  and  _261
REMARK  109  A    between atoms: _260  and  _263
REMARK  110  A    between atoms: _263  and  _264
REMARK  111  A    between atoms: _266  and  _268
REMARK  112  A    between atoms: _268  and  _269
REMARK  113  A    between atoms: _268  and  _271
REMARK  114  A    between atoms: _271  and  _272
REMARK  115  A    between atoms: _277  and  _278
REMARK  116  A    between atoms: _280  and  _282
REMARK  117  A    between atoms: _282  and  _283
REMARK  118  A    between atoms: _282  and  _285
REMARK  119  A    between atoms: _285  and  _286
REMARK  120  A    between atoms: _286  and  _287
REMARK  121  A    between atoms: _292  and  _294
REMARK  122  A    between atoms: _294  and  _295
REMARK  123  A    between atoms: _297  and  _299
REMARK  124  A    between atoms: _299  and  _300
REMARK  125  A    between atoms: _299  and  _302
REMARK  126  A    between atoms: _302  and  _303
REMARK  127  A    between atoms: _308  and  _310
REMARK  128  A    between atoms: _310  and  _311
REMARK  129  A    between atoms: _310  and  _313
REMARK  130  A    between atoms: _313  and  _314
REMARK  131  A    between atoms: _317  and  _319
REMARK  132  A    between atoms: _319  and  _320
REMARK  133  A    between atoms: _319  and  _322
REMARK  134  A    between atoms: _322  and  _323
REMARK  135  A    between atoms: _323  and  _324
REMARK  136  A    between atoms: _324  and  _325
REMARK  137  A    between atoms: _334  and  _336
REMARK  138  A    between atoms: _336  and  _337
REMARK  139  A    between atoms: _336  and  _339
REMARK  140  A    between atoms: _339  and  _340
REMARK  141  A    between atoms: _345  and  _346
REMARK  142  A    between atoms: _348  and  _350
REMARK  143  A    between atoms: _350  and  _351
REMARK  144  A    between atoms: _350  and  _353
REMARK  145  A    between atoms: _353  and  _354
REMARK  146  A    between atoms: _357  and  _359
REMARK  147  A    between atoms: _359  and  _360
REMARK  148  A    between atoms: _359  and  _362
REMARK  149  A    between atoms: _365  and  _367
REMARK  150  A    between atoms: _367  and  _368
REMARK  151  A    between atoms: _367  and  _370
REMARK  152  A    between atoms: _370  and  _371
REMARK  153  A    between atoms: _373  and  _375
REMARK  154  A    between atoms: _375  and  _376
REMARK  155  A    between atoms: _375  and  _378
REMARK  156  A    between atoms: _378  and  _379
REMARK  157  A    between atoms: _379  and  _380
REMARK  158  A    between atoms: _382  and  _384
REMARK  159  A    between atoms: _384  and  _385
REMARK  160  A    between atoms: _387  and  _389
REMARK  161  A    between atoms: _389  and  _390
REMARK  162  A    between atoms: _389  and  _392
REMARK  163  A    between atoms: _392  and  _393
REMARK  164  A    between atoms: _396  and  _398
REMARK  165  A    between atoms: _398  and  _399
REMARK  166  A    between atoms: _398  and  _401
REMARK  167  A    between atoms: _401  and  _402
REMARK  168  A    between atoms: _408  and  _410
REMARK  169  A    between atoms: _410  and  _411
REMARK  170  A    between atoms: _410  and  _413
REMARK  171  A    between atoms: _413  and  _414
REMARK  172  A    between atoms: _417  and  _419
REMARK  173  A    between atoms: _419  and  _420
REMARK  174  A    between atoms: _422  and  _424
REMARK  175  A    between atoms: _424  and  _425
REMARK  176  A    between atoms: _424  and  _427
REMARK  177  A    between atoms: _427  and  _428
REMARK  178  A    between atoms: _431  and  _433
REMARK  179  A    between atoms: _433  and  _434
REMARK  180  A    between atoms: _436  and  _438
REMARK  181  A    between atoms: _438  and  _439
REMARK  182  A    between atoms: _438  and  _441
REMARK  183  A    between atoms: _441  and  _442
REMARK  184  A    between atoms: _442  and  _443
REMARK  185  A    between atoms: _446  and  _448
REMARK  186  A    between atoms: _448  and  _449
REMARK  187  A    between atoms: _448  and  _451
REMARK  188  A    between atoms: _451  and  _452
REMARK  189  A    between atoms: _452  and  _453
REMARK  190  A    between atoms: _455  and  _457
REMARK  191  A    between atoms: _457  and  _458
REMARK  192  A    between atoms: _457  and  _460
REMARK  193  A    between atoms: _460  and  _461
REMARK  194  A    between atoms: _464  and  _466
REMARK  195  A    between atoms: _466  and  _467
REMARK  196  A    between atoms: _466  and  _469
REMARK  197  A    between atoms: _469  and  _470
REMARK  198  A    between atoms: _470  and  _471
REMARK  199  A    between atoms: _474  and  _476
REMARK  200  A    between atoms: _476  and  _477
REMARK  201  A    between atoms: _476  and  _479
REMARK  202  A    between atoms: _479  and  _480
REMARK  203  A    between atoms: _480  and  _481
REMARK  204  A    between atoms: _484  and  _486
REMARK  205  A    between atoms: _486  and  _487
REMARK  206  A    between atoms: _486  and  _489
REMARK  207  A    between atoms: _489  and  _490
REMARK  208  A    between atoms: _492  and  _494
REMARK  209  A    between atoms: _494  and  _495
REMARK  210  A    between atoms: _494  and  _497
REMARK  211  A    between atoms: _497  and  _498
REMARK  212  A    between atoms: _501  and  _503
REMARK  213  A    between atoms: _503  and  _504
REMARK  214  A    between atoms: _503  and  _506
REMARK  215  A    between atoms: _506  and  _507
REMARK  216  A    between atoms: _512  and  _514
REMARK  217  A    between atoms: _514  and  _515
REMARK  218  A    between atoms: _514  and  _517
REMARK  219  A    between atoms: _519  and  _521
REMARK  220  A    between atoms: _525  and  _527
REMARK  221  A    between atoms: _532  and  _535
REMARK  222  A    between atoms: _535  and  _536
REMARK  223  A    between atoms: _541  and  _544
REMARK  224  A    between atoms: _542  and  _551
REMARK  225  A    between atoms: _544  and  _545
REMARK  226  A    between atoms: _545  and  _546
REMARK  227  A    between atoms: _551  and  _553
REMARK  228  A    between atoms: _553  and  _554
REMARK  229  A    between atoms: _553  and  _556
REMARK  230  A    between atoms: _556  and  _557
REMARK  231  A    between atoms: _557  and  _558
REMARK  232  A    between atoms: _558  and  _559
REMARK  233  A    between atoms: _568  and  _570
REMARK  234  A    between atoms: _570  and  _571
REMARK  235  A    between atoms: _570  and  _573
REMARK  236  A    between atoms: _573  and  _574
REMARK  237  A    between atoms: _577  and  _579
REMARK  238  A    between atoms: _579  and  _580
REMARK  239  A    between atoms: _579  and  _582
REMARK  240  A    between atoms: _582  and  _583
REMARK  241  A    between atoms: _586  and  _588
REMARK  242  A    between atoms: _588  and  _589
REMARK  243  A    between atoms: _592  and  _593
REMARK  244  A    between atoms: _598  and  _600
REMARK  245  A    between atoms: _600  and  _601
REMARK  246  A    between atoms: _600  and  _603
REMARK  247  A    between atoms: _606  and  _608
REMARK  248  A    between atoms: _608  and  _609
REMARK  249  A    between atoms: _608  and  _611
REMARK  250  A    between atoms: _611  and  _612
REMARK  251  A    between atoms: _612  and  _613
REMARK  252  A    between atoms: _618  and  _620
REMARK  253  A    between atoms: _620  and  _621
REMARK  254  A    between atoms: _620  and  _623
REMARK  255  A    between atoms: _623  and  _624
REMARK  256  A    between atoms: _627  and  _629
REMARK  257  A    between atoms: _629  and  _630
REMARK  258  A    between atoms: _629  and  _632
REMARK  259  A    between atoms: _632  and  _633
REMARK  260  A    between atoms: _633  and  _634
REMARK  261  A    between atoms: _634  and  _635
REMARK  262  A    between atoms: _635  and  _636
REMARK  263  A    between atoms: _640  and  _642
REMARK  264  A    between atoms: _642  and  _643
REMARK  265  A    between atoms: _645  and  _647
REMARK  266  A    between atoms: _647  and  _648
REMARK  267  A    between atoms: _647  and  _650
REMARK  268  A    between atoms: _650  and  _651
REMARK                            x       y       z     vdW  Elec       q    Type
REMARK                         _______ _______ _______ _____ _____    ______ ____
ROOT
ATOM      1  CG  TYR A   1      26.711 -35.405  28.327  0.00  0.00    -0.020 A 
ATOM      2  CD2 TYR A   1      27.268 -36.639  28.007  0.00  0.00    -0.001 A 
ATOM      3  CE2 TYR A   1      27.273 -37.104  26.696  0.00  0.00    +0.036 A 
ATOM      4  CZ  TYR A   1      26.718 -36.331  25.700  0.00  0.00    +0.134 A 
ATOM      5  CE1 TYR A   1      26.158 -35.095  25.997  0.00  0.00    +0.036 A 
ATOM      6  CD1 TYR A   1      26.156 -34.643  27.303  0.00  0.00    -0.001 A 
ENDROOT
BRANCH   4   7
ATOM      7  OH  TYR A   1      26.692 -36.783  24.403  0.00  0.00    -0.506 OA
ATOM      8  HH  TYR A   1      25.753 -36.857  24.099  0.00  0.00    +0.292 HD
ENDBRANCH   4   7
BRANCH   1   9
ATOM      9  CB  TYR A   1      26.714 -34.904  29.741  0.00  0.00    +0.051 C 
BRANCH   9  10
ATOM     10  CA  TYR A   1      25.665 -35.556  30.631  0.00  0.00    +0.137 C 
BRANCH  10  11
ATOM     11  N   TYR A   1      24.347 -34.991  30.371  0.00  0.00    -0.239 NA
ATOM     12  H   TYR A   1      24.255 -34.183  29.722  0.00  0.00    +0.142 HD
ENDBRANCH  10  11
BRANCH  10  13
ATOM     13  C   TYR A   1      26.045 -35.314  32.083  0.00  0.00    +0.224 C 
ATOM     14  O   TYR A   1      26.637 -36.173  32.726  0.00  0.00    -0.287 OA
ENDBRANCH  10  13
ENDBRANCH   9  10
ENDBRANCH   1   9
TORSDOF 5
REMARK  Name = ../refined-set-2016/1rp7/1rp7_pocket.pdb
REMARK  268 active torsions:
REMARK  status: ('A' for Active; 'I' for Inactive)
REMARK    1  A    between atoms: _1  and  _3
REMARK    2  A    between atoms: _3  and  _4
REMARK    3  A    between atoms: _7  and  _9
REMARK    4  A    between atoms: _9  and  _10
REMARK    5  A    between atoms: _9  and  _12
REMARK    6  A    between atoms: _12  and  _13
REMARK    7  A    between atoms: _16  and  _18
REMARK    8  A    between atoms: _18  and  _19
REMARK    9  A    between atoms: _18  and  _21
REMARK   10  A    between atoms: _21  and  _22
REMARK   11  A    between atoms: _22  and  _23
REMARK   12  A    between atoms: _26  and  _28
REMARK   13  A    between atoms: _28  and  _29
REMARK   14  A    between atoms: _28  and  _31
REMARK   15  A    between atoms: _31  and  _32
REMARK   16  A    between atoms: _35  and  _37
REMARK   17  A    between atoms: _37  and  _38
REMARK   18  A    between atoms: _40  and  _42
REMARK   19  A    between atoms: _42  and  _43
REMARK   20  A    between atoms: _42  and  _45
REMARK   21  A    between atoms: _45  and  _46
REMARK   22  A    between atoms: _49  and  _51
REMARK   23  A    between atoms: _51  and  _52
REMARK   24  A    between atoms: _51  and  _54
REMARK   25  A    between atoms: _54  and  _55
REMARK   26  A    between atoms: _60  and  _62
REMARK   27  A    between atoms: _62  and  _63
REMARK   28  A    between atoms: _62  and  _65
REMARK   29  A    between atoms: _65  and  _66
REMARK   30  A    between atoms: _66  and  _67
REMARK   31  A    between atoms: _70  and  _72
REMARK   32  A    between atoms: _72  and  _73
REMARK   33  A    between atoms: _72  and  _75
REMARK   34  A    between atoms: _75  and  _76
REMARK   35  A    between atoms: _79  and  _81
REMARK   36  A    between atoms: _81  and  _82
REMARK   37  A    between atoms: _81  and  _84
REMARK   38  A    between atoms: _84  and  _85
REMARK   39  A    between atoms: _90  and  _91
REMARK   40  A    between atoms: _93  and  _95
REMARK   41  A    between atoms: _95  and  _96
REMARK   42  A    between atoms: _95  and  _98
REMARK   43  A    between atoms: _98  and  _99
REMARK   44  A    between atoms: _104  and  _105
REMARK   45  A    between atoms: _107  and  _109
REMARK   46  A    between atoms: _109  and  _110
REMARK   47  A    between atoms: _109  and  _112
REMARK   48  A    between atoms: _112  and  _113
REMARK   49  A    between atoms: _118  and  _119
REMARK   50  A    between atoms: _121  and  _123
REMARK   51  A    between atoms: _123  and  _124
REMARK   52  A    between atoms: _123  and  _126
REMARK   53  A    between atoms: _126  and  _127
REMARK   54  A    between atoms: _127  and  _128
REMARK   55  A    between atoms: _130  and  _132
REMARK   56  A    between atoms: _132  and  _133
REMARK   57  A    between atoms: _132  and  _135
REMARK   58  A    between atoms: _135  and  _136
REMARK   59  A    between atoms: _142  and  _144
REMARK   60  A    between atoms: _144  and  _145
REMARK   61  A    between atoms: _144  and  _147
REMARK   62  A    between atoms: _147  and  _148
REMARK   63  A    between atoms: _148  and  _149
REMARK   64  A    between atoms: _149  and  _150
REMARK   65  A    between atoms: _159  and  _161
REMARK   66  A    between atoms: _161  and  _162
REMARK   67  A    between atoms: _161  and  _164
REMARK   68  A    between atoms: _164  and  _165
REMARK   69  A    between atoms: _165  and  _166
REMARK   70  A    between atoms: _169  and  _171
REMARK   71  A    between atoms: _171  and  _172
REMARK   72  A    between atoms: _171  and  _174
REMARK   73  A    between atoms: _174  and  _175
REMARK   74  A    between atoms: _175  and  _176
REMARK   75  A    between atoms: _181  and  _183
REMARK   76  A    between atoms: _183  and  _184
REMARK   77  A    between atoms: _183  and  _186
REMARK   78  A    between atoms: _186  and  _187
REMARK   79  A    between atoms: _192  and  _194
REMARK   80  A    between atoms: _194  and  _195
REMARK   81  A    between atoms: _194  and  _197
REMARK   82  A    between atoms: _197  and  _198
REMARK   83  A    between atoms: _203  and  _205
REMARK   84  A    between atoms: _205  and  _206
REMARK   85  A    between atoms: _205  and  _208
REMARK   86  A    between atoms: _208  and  _209
REMARK   87  A    between atoms: _209  and  _210
REMARK   88  A    between atoms: _212  and  _214
REMARK   89  A    between atoms: _214  and  _215
REMARK   90  A    between atoms: _218  and  _220
REMARK   91  A    between atoms: _220  and  _221
REMARK   92  A    between atoms: _220  and  _223
REMARK   93  A    between atoms: _223  and  _224
REMARK   94  A    between atoms: _226  and  _228
REMARK   95  A    between atoms: _228  and  _229
REMARK   96  A    between atoms: _228  and  _231
REMARK   97  A    between atoms: _231  and  _232
REMARK   98  A    between atoms: _238  and  _240
REMARK   99  A    between atoms: _240  and  _241
REMARK  100  A    between atoms: _240  and  _243
REMARK  101  A    between atoms: _243  and  _244
REMARK  102  A    between atoms: _244  and  _245
REMARK  103  A    between atoms: _250  and  _252
REMARK  104  A    between atoms: _252  and  _253
REMARK  105  A    between atoms: _252  and  _255
REMARK  106  A    between atoms: _255  and  _256
REMARK  107  A    between atoms: _258  and  _260
REMARK  108  A    between atoms: _260  and  _261
REMARK  109  A    between atoms: _260  and  _263
REMARK  110  A    between atoms: _263  and  _264
REMARK  111  A    between atoms: _266  and  _268
REMARK  112  A    between atoms: _268  and  _269
REMARK  113  A    between atoms: _268  and  _271
REMARK  114  A    between atoms: _271  and  _272
REMARK  115  A    between atoms: _277  and  _278
REMARK  116  A    between atoms: _280  and  _282
REMARK  117  A    between atoms: _282  and  _283
REMARK  118  A    between atoms: _282  and  _285
REMARK  119  A    between atoms: _285  and  _286
REMARK  120  A    between atoms: _286  and  _287
REMARK  121  A    between atoms: _292  and  _294
REMARK  122  A    between atoms: _294  and  _295
REMARK  123  A    between atoms: _297  and  _299
REMARK  124  A    between atoms: _299  and  _300
REMARK  125  A    between atoms: _299  and  _302
REMARK  126  A    between atoms: _302  and  _303
REMARK  127  A    between atoms: _308  and  _310
REMARK  128  A    between atoms: _310  and  _311
REMARK  129  A    between atoms: _310  and  _313
REMARK  130  A    between atoms: _313  and  _314
REMARK  131  A    between atoms: _317  and  _319
REMARK  132  A    between atoms: _319  and  _320
REMARK  133  A    between atoms: _319  and  _322
REMARK  134  A    between atoms: _322  and  _323
REMARK  135  A    between atoms: _323  and  _324
REMARK  136  A    between atoms: _324  and  _325
REMARK  137  A    between atoms: _334  and  _336
REMARK  138  A    between atoms: _336  and  _337
REMARK  139  A    between atoms: _336  and  _339
REMARK  140  A    between atoms: _339  and  _340
REMARK  141  A    between atoms: _345  and  _346
REMARK  142  A    between atoms: _348  and  _350
REMARK  143  A    between atoms: _350  and  _351
REMARK  144  A    between atoms: _350  and  _353
REMARK  145  A    between atoms: _353  and  _354
REMARK  146  A    between atoms: _357  and  _359
REMARK  147  A    between atoms: _359  and  _360
REMARK  148  A    between atoms: _359  and  _362
REMARK  149  A    between atoms: _365  and  _367
REMARK  150  A    between atoms: _367  and  _368
REMARK  151  A    between atoms: _367  and  _370
REMARK  152  A    between atoms: _370  and  _371
REMARK  153  A    between atoms: _373  and  _375
REMARK  154  A    between atoms: _375  and  _376
REMARK  155  A    between atoms: _375  and  _378
REMARK  156  A    between atoms: _378  and  _379
REMARK  157  A    between atoms: _379  and  _380
REMARK  158  A    between atoms: _382  and  _384
REMARK  159  A    between atoms: _384  and  _385
REMARK  160  A    between atoms: _387  and  _389
REMARK  161  A    between atoms: _389  and  _390
REMARK  162  A    between atoms: _389  and  _392
REMARK  163  A    between atoms: _392  and  _393
REMARK  164  A    between atoms: _396  and  _398
REMARK  165  A    between atoms: _398  and  _399
REMARK  166  A    between atoms: _398  and  _401
REMARK  167  A    between atoms: _401  and  _402
REMARK  168  A    between atoms: _408  and  _410
REMARK  169  A    between atoms: _410  and  _411
REMARK  170  A    between atoms: _410  and  _413
REMARK  171  A    between atoms: _413  and  _414
REMARK  172  A    between atoms: _417  and  _419
REMARK  173  A    between atoms: _419  and  _420
REMARK  174  A    between atoms: _422  and  _424
REMARK  175  A    between atoms: _424  and  _425
REMARK  176  A    between atoms: _424  and  _427
REMARK  177  A    between atoms: _427  and  _428
REMARK  178  A    between atoms: _431  and  _433
REMARK  179  A    between atoms: _433  and  _434
REMARK  180  A    between atoms: _436  and  _438
REMARK  181  A    between atoms: _438  and  _439
REMARK  182  A    between atoms: _438  and  _441
REMARK  183  A    between atoms: _441  and  _442
REMARK  184  A    between atoms: _442  and  _443
REMARK  185  A    between atoms: _446  and  _448
REMARK  186  A    between atoms: _448  and  _449
REMARK  187  A    between atoms: _448  and  _451
REMARK  188  A    between atoms: _451  and  _452
REMARK  189  A    between atoms: _452  and  _453
REMARK  190  A    between atoms: _455  and  _457
REMARK  191  A    between atoms: _457  and  _458
REMARK  192  A    between atoms: _457  and  _460
REMARK  193  A    between atoms: _460  and  _461
REMARK  194  A    between atoms: _464  and  _466
REMARK  195  A    between atoms: _466  and  _467
REMARK  196  A    between atoms: _466  and  _469
REMARK  197  A    between atoms: _469  and  _470
REMARK  198  A    between atoms: _470  and  _471
REMARK  199  A    between atoms: _474  and  _476
REMARK  200  A    between atoms: _476  and  _477
REMARK  201  A    between atoms: _476  and  _479
REMARK  202  A    between atoms: _479  and  _480
REMARK  203  A    between atoms: _480  and  _481
REMARK  204  A    between atoms: _484  and  _486
REMARK  205  A    between atoms: _486  and  _487
REMARK  206  A    between atoms: _486  and  _489
REMARK  207  A    between atoms: _489  and  _490
REMARK  208  A    between atoms: _492  and  _494
REMARK  209  A    between atoms: _494  and  _495
REMARK  210  A    between atoms: _494  and  _497
REMARK  211  A    between atoms: _497  and  _498
REMARK  212  A    between atoms: _501  and  _503
REMARK  213  A    between atoms: _503  and  _504
REMARK  214  A    between atoms: _503  and  _506
REMARK  215  A    between atoms: _506  and  _507
REMARK  216  A    between atoms: _512  and  _514
REMARK  217  A    between atoms: _514  and  _515
REMARK  218  A    between atoms: _514  and  _517
REMARK  219  A    between atoms: _519  and  _521
REMARK  220  A    between atoms: _525  and  _527
REMARK  221  A    between atoms: _532  and  _535
REMARK  222  A    between atoms: _535  and  _536
REMARK  223  A    between atoms: _541  and  _544
REMARK  224  A    between atoms: _542  and  _551
REMARK  225  A    between atoms: _544  and  _545
REMARK  226  A    between atoms: _545  and  _546
REMARK  227  A    between atoms: _551  and  _553
REMARK  228  A    between atoms: _553  and  _554
REMARK  229  A    between atoms: _553  and  _556
REMARK  230  A    between atoms: _556  and  _557
REMARK  231  A    between atoms: _557  and  _558
REMARK  232  A    between atoms: _558  and  _559
REMARK  233  A    between atoms: _568  and  _570
REMARK  234  A    between atoms: _570  and  _571
REMARK  235  A    between atoms: _570  and  _573
REMARK  236  A    between atoms: _573  and  _574
REMARK  237  A    between atoms: _577  and  _579
REMARK  238  A    between atoms: _579  and  _580
REMARK  239  A    between atoms: _579  and  _582
REMARK  240  A    between atoms: _582  and  _583
REMARK  241  A    between atoms: _586  and  _588
REMARK  242  A    between atoms: _588  and  _589
REMARK  243  A    between atoms: _592  and  _593
REMARK  244  A    between atoms: _598  and  _600
REMARK  245  A    between atoms: _600  and  _601
REMARK  246  A    between atoms: _600  and  _603
REMARK  247  A    between atoms: _606  and  _608
REMARK  248  A    between atoms: _608  and  _609
REMARK  249  A    between atoms: _608  and  _611
REMARK  250  A    between atoms: _611  and  _612
REMARK  251  A    between atoms: _612  and  _613
REMARK  252  A    between atoms: _618  and  _620
REMARK  253  A    between atoms: _620  and  _621
REMARK  254  A    between atoms: _620  and  _623
REMARK  255  A    between atoms: _623  and  _624
REMARK  256  A    between atoms: _627  and  _629
REMARK  257  A    between atoms: _629  and  _630
REMARK  258  A    between atoms: _629  and  _632
REMARK  259  A    between atoms: _632  and  _633
REMARK  260  A    between atoms: _633  and  _634
REMARK  261  A    between atoms: _634  and  _635
REMARK  262  A    between atoms: _635  and  _636
REMARK  263  A    between atoms: _640  and  _642
REMARK  264  A    between atoms: _642  and  _643
REMARK  265  A    between atoms: _645  and  _647
REMARK  266  A    between atoms: _647  and  _648
REMARK  267  A    between atoms: _647  and  _650
REMARK  268  A    between atoms: _650  and  _651
REMARK                            x       y       z     vdW  Elec       q    Type
REMARK                         _______ _______ _______ _____ _____    ______ ____
ROOT
ATOM      1  C   GLY A   2      31.063 -34.791  18.690  0.00  0.00    +0.243 C 
ATOM      2  O   GLY A   2      32.090 -34.427  19.279  0.00  0.00    -0.273 OA
ATOM      3  N   HIS A   3      30.162 -33.937  18.198  0.00  0.00    -0.297 N 
ATOM      4  H   HIS A   3      29.304 -34.312  17.746  0.00  0.00    +0.150 HD
ENDROOT
BRANCH   1   5
ATOM      5  CA  GLY A   2      30.788 -36.276  18.493  0.00  0.00    +0.176 C 
BRANCH   5   8
ATOM      6  C   GLN A   1      29.196 -36.735  20.250  0.00  0.00    +0.238 C 
ATOM      7  O   GLN A   1      29.821 -36.042  21.046  0.00  0.00    -0.274 OA
ATOM      8  N   GLY A   2      29.572 -36.895  18.987  0.00  0.00    -0.296 N 
ATOM      9  H   GLY A   2      28.989 -37.470  18.345  0.00  0.00    +0.150 HD
BRANCH   6  10
ATOM     10  CA  GLN A   1      27.935 -37.476  20.689  0.00  0.00    +0.145 C 
BRANCH  10  11
ATOM     11  N   GLN A   1      28.272 -38.090  21.962  0.00  0.00    -0.238 NA
ATOM     12  H   GLN A   1      27.703 -37.872  22.805  0.00  0.00    +0.142 HD
ENDBRANCH  10  11
BRANCH  10  13
ATOM     13  CB  GLN A   1      26.777 -36.504  20.867  0.00  0.00    +0.036 C 
BRANCH  13  14
ATOM     14  CG  GLN A   1      26.001 -36.240  19.596  0.00  0.00    +0.087 C 
BRANCH  14  15
ATOM     15  CD  GLN A   1      24.898 -35.237  19.814  0.00  0.00    +0.219 C 
ATOM     16  OE1 GLN A   1      24.856 -34.569  20.845  0.00  0.00    -0.275 OA
ATOM     17  NE2 GLN A   1      23.993 -35.131  18.853  0.00  0.00    -0.329 N 
ATOM     18 HE21 GLN A   1      23.204 -34.461  18.953  0.00  0.00    +0.145 HD
ATOM     19 HE22 GLN A   1      24.071 -35.718  17.998  0.00  0.00    +0.145 HD
ENDBRANCH  14  15
ENDBRANCH  13  14
ENDBRANCH  10  13
ENDBRANCH   6  10
ENDBRANCH   5   8
ENDBRANCH   1   5
BRANCH   3  20
ATOM     20  CA  HIS A   3      30.349 -32.491  18.277  0.00  0.00    +0.155 C 
BRANCH  20  21
ATOM     21  C   HIS A   3      30.101 -31.801  19.609  0.00  0.00    +0.241 C 
ATOM     22  N   ILE A   4      29.947 -32.579  20.679  0.00  0.00    -0.298 N 
ATOM     23  H   ILE A   4      29.941 -33.613  20.571  0.00  0.00    +0.150 HD
ATOM     24  O   HIS A   3      30.046 -30.567  19.667  0.00  0.00    -0.273 OA
BRANCH  22  25
ATOM     25  CA  ILE A   4      29.787 -31.986  22.000  0.00  0.00    +0.137 C 
BRANCH  25  26
ATOM     26  C   ILE A   4      31.088 -32.225  22.782  0.00  0.00    +0.227 C 
ATOM     27  O   ILE A   4      31.125 -32.113  24.004  0.00  0.00    -0.286 OA
ENDBRANCH  25  26
BRANCH  25  28
ATOM     28  CB  ILE A   4      28.538 -32.547  22.778  0.00  0.00    +0.026 C 
ATOM     29  CG2 ILE A   4      27.269 -32.155  22.032  0.00  0.00    +0.002 C 
BRANCH  28  30
ATOM     30  CG1 ILE A   4      28.607 -34.069  22.952  0.00  0.00    +0.002 C 
ATOM     31  CD1 ILE A   4      29.299 -34.531  24.234  0.00  0.00    +0.000 C 
ENDBRANCH  28  30
ENDBRANCH  25  28
ENDBRANCH  22  25
ENDBRANCH  20  21
BRANCH  20  32
ATOM     32  CB  HIS A   3      29.560 -31.781  17.162  0.00  0.00    +0.076 C 
BRANCH  32  33
ATOM     33  CG  HIS A   3      28.104 -32.124  17.123  0.00  0.00    +0.082 A 
ATOM     34  CD2 HIS A   3      27.005 -31.365  17.339  0.00  0.00    +0.115 A 
ATOM     35  NE2 HIS A   3      25.911 -32.171  17.153  0.00  0.00    -0.221 NA
ATOM     36  CE1 HIS A   3      26.321 -33.385  16.833  0.00  0.00    +0.199 A 
ATOM     37  ND1 HIS A   3      27.642 -33.383  16.808  0.00  0.00    -0.227 NA
ENDBRANCH  32  33
ENDBRANCH  20  32
ENDBRANCH   3  20
TORSDOF 15
REMARK  Name = ../refined-set-2016/1rp7/1rp7_pocket.pdb
REMARK  268 active torsions:
REMARK  status: ('A' for Active; 'I' for Inactive)
REMARK    1  A    between atoms: _1  and  _3
REMARK    2  A    between atoms: _3  and  _4
REMARK    3  A    between atoms: _7  and  _9
REMARK    4  A    between atoms: _9  and  _10
REMARK    5  A    between atoms: _9  and  _12
REMARK    6  A    between atoms: _12  and  _13
REMARK    7  A    between atoms: _16  and  _18
REMARK    8  A    between atoms: _18  and  _19
REMARK    9  A    between atoms: _18  and  _21
REMARK   10  A    between atoms: _21  and  _22
REMARK   11  A    between atoms: _22  and  _23
REMARK   12  A    between atoms: _26  and  _28
REMARK   13  A    between atoms: _28  and  _29
REMARK   14  A    between atoms: _28  and  _31
REMARK   15  A    between atoms: _31  and  _32
REMARK   16  A    between atoms: _35  and  _37
REMARK   17  A    between atoms: _37  and  _38
REMARK   18  A    between atoms: _40  and  _42
REMARK   19  A    between atoms: _42  and  _43
REMARK   20  A    between atoms: _42  and  _45
REMARK   21  A    between atoms: _45  and  _46
REMARK   22  A    between atoms: _49  and  _51
REMARK   23  A    between atoms: _51  and  _52
REMARK   24  A    between atoms: _51  and  _54
REMARK   25  A    between atoms: _54  and  _55
REMARK   26  A    between atoms: _60  and  _62
REMARK   27  A    between atoms: _62  and  _63
REMARK   28  A    between atoms: _62  and  _65
REMARK   29  A    between atoms: _65  and  _66
REMARK   30  A    between atoms: _66  and  _67
REMARK   31  A    between atoms: _70  and  _72
REMARK   32  A    between atoms: _72  and  _73
REMARK   33  A    between atoms: _72  and  _75
REMARK   34  A    between atoms: _75  and  _76
REMARK   35  A    between atoms: _79  and  _81
REMARK   36  A    between atoms: _81  and  _82
REMARK   37  A    between atoms: _81  and  _84
REMARK   38  A    between atoms: _84  and  _85
REMARK   39  A    between atoms: _90  and  _91
REMARK   40  A    between atoms: _93  and  _95
REMARK   41  A    between atoms: _95  and  _96
REMARK   42  A    between atoms: _95  and  _98
REMARK   43  A    between atoms: _98  and  _99
REMARK   44  A    between atoms: _104  and  _105
REMARK   45  A    between atoms: _107  and  _109
REMARK   46  A    between atoms: _109  and  _110
REMARK   47  A    between atoms: _109  and  _112
REMARK   48  A    between atoms: _112  and  _113
REMARK   49  A    between atoms: _118  and  _119
REMARK   50  A    between atoms: _121  and  _123
REMARK   51  A    between atoms: _123  and  _124
REMARK   52  A    between atoms: _123  and  _126
REMARK   53  A    between atoms: _126  and  _127
REMARK   54  A    between atoms: _127  and  _128
REMARK   55  A    between atoms: _130  and  _132
REMARK   56  A    between atoms: _132  and  _133
REMARK   57  A    between atoms: _132  and  _135
REMARK   58  A    between atoms: _135  and  _136
REMARK   59  A    between atoms: _142  and  _144
REMARK   60  A    between atoms: _144  and  _145
REMARK   61  A    between atoms: _144  and  _147
REMARK   62  A    between atoms: _147  and  _148
REMARK   63  A    between atoms: _148  and  _149
REMARK   64  A    between atoms: _149  and  _150
REMARK   65  A    between atoms: _159  and  _161
REMARK   66  A    between atoms: _161  and  _162
REMARK   67  A    between atoms: _161  and  _164
REMARK   68  A    between atoms: _164  and  _165
REMARK   69  A    between atoms: _165  and  _166
REMARK   70  A    between atoms: _169  and  _171
REMARK   71  A    between atoms: _171  and  _172
REMARK   72  A    between atoms: _171  and  _174
REMARK   73  A    between atoms: _174  and  _175
REMARK   74  A    between atoms: _175  and  _176
REMARK   75  A    between atoms: _181  and  _183
REMARK   76  A    between atoms: _183  and  _184
REMARK   77  A    between atoms: _183  and  _186
REMARK   78  A    between atoms: _186  and  _187
REMARK   79  A    between atoms: _192  and  _194
REMARK   80  A    between atoms: _194  and  _195
REMARK   81  A    between atoms: _194  and  _197
REMARK   82  A    between atoms: _197  and  _198
REMARK   83  A    between atoms: _203  and  _205
REMARK   84  A    between atoms: _205  and  _206
REMARK   85  A    between atoms: _205  and  _208
REMARK   86  A    between atoms: _208  and  _209
REMARK   87  A    between atoms: _209  and  _210
REMARK   88  A    between atoms: _212  and  _214
REMARK   89  A    between atoms: _214  and  _215
REMARK   90  A    between atoms: _218  and  _220
REMARK   91  A    between atoms: _220  and  _221
REMARK   92  A    between atoms: _220  and  _223
REMARK   93  A    between atoms: _223  and  _224
REMARK   94  A    between atoms: _226  and  _228
REMARK   95  A    between atoms: _228  and  _229
REMARK   96  A    between atoms: _228  and  _231
REMARK   97  A    between atoms: _231  and  _232
REMARK   98  A    between atoms: _238  and  _240
REMARK   99  A    between atoms: _240  and  _241
REMARK  100  A    between atoms: _240  and  _243
REMARK  101  A    between atoms: _243  and  _244
REMARK  102  A    between atoms: _244  and  _245
REMARK  103  A    between atoms: _250  and  _252
REMARK  104  A    between atoms: _252  and  _253
REMARK  105  A    between atoms: _252  and  _255
REMARK  106  A    between atoms: _255  and  _256
REMARK  107  A    between atoms: _258  and  _260
REMARK  108  A    between atoms: _260  and  _261
REMARK  109  A    between atoms: _260  and  _263
REMARK  110  A    between atoms: _263  and  _264
REMARK  111  A    between atoms: _266  and  _268
REMARK  112  A    between atoms: _268  and  _269
REMARK  113  A    between atoms: _268  and  _271
REMARK  114  A    between atoms: _271  and  _272
REMARK  115  A    between atoms: _277  and  _278
REMARK  116  A    between atoms: _280  and  _282
REMARK  117  A    between atoms: _282  and  _283
REMARK  118  A    between atoms: _282  and  _285
REMARK  119  A    between atoms: _285  and  _286
REMARK  120  A    between atoms: _286  and  _287
REMARK  121  A    between atoms: _292  and  _294
REMARK  122  A    between atoms: _294  and  _295
REMARK  123  A    between atoms: _297  and  _299
REMARK  124  A    between atoms: _299  and  _300
REMARK  125  A    between atoms: _299  and  _302
REMARK  126  A    between atoms: _302  and  _303
REMARK  127  A    between atoms: _308  and  _310
REMARK  128  A    between atoms: _310  and  _311
REMARK  129  A    between atoms: _310  and  _313
REMARK  130  A    between atoms: _313  and  _314
REMARK  131  A    between atoms: _317  and  _319
REMARK  132  A    between atoms: _319  and  _320
REMARK  133  A    between atoms: _319  and  _322
REMARK  134  A    between atoms: _322  and  _323
REMARK  135  A    between atoms: _323  and  _324
REMARK  136  A    between atoms: _324  and  _325
REMARK  137  A    between atoms: _334  and  _336
REMARK  138  A    between atoms: _336  and  _337
REMARK  139  A    between atoms: _336  and  _339
REMARK  140  A    between atoms: _339  and  _340
REMARK  141  A    between atoms: _345  and  _346
REMARK  142  A    between atoms: _348  and  _350
REMARK  143  A    between atoms: _350  and  _351
REMARK  144  A    between atoms: _350  and  _353
REMARK  145  A    between atoms: _353  and  _354
REMARK  146  A    between atoms: _357  and  _359
REMARK  147  A    between atoms: _359  and  _360
REMARK  148  A    between atoms: _359  and  _362
REMARK  149  A    between atoms: _365  and  _367
REMARK  150  A    between atoms: _367  and  _368
REMARK  151  A    between atoms: _367  and  _370
REMARK  152  A    between atoms: _370  and  _371
REMARK  153  A    between atoms: _373  and  _375
REMARK  154  A    between atoms: _375  and  _376
REMARK  155  A    between atoms: _375  and  _378
REMARK  156  A    between atoms: _378  and  _379
REMARK  157  A    between atoms: _379  and  _380
REMARK  158  A    between atoms: _382  and  _384
REMARK  159  A    between atoms: _384  and  _385
REMARK  160  A    between atoms: _387  and  _389
REMARK  161  A    between atoms: _389  and  _390
REMARK  162  A    between atoms: _389  and  _392
REMARK  163  A    between atoms: _392  and  _393
REMARK  164  A    between atoms: _396  and  _398
REMARK  165  A    between atoms: _398  and  _399
REMARK  166  A    between atoms: _398  and  _401
REMARK  167  A    between atoms: _401  and  _402
REMARK  168  A    between atoms: _408  and  _410
REMARK  169  A    between atoms: _410  and  _411
REMARK  170  A    between atoms: _410  and  _413
REMARK  171  A    between atoms: _413  and  _414
REMARK  172  A    between atoms: _417  and  _419
REMARK  173  A    between atoms: _419  and  _420
REMARK  174  A    between atoms: _422  and  _424
REMARK  175  A    between atoms: _424  and  _425
REMARK  176  A    between atoms: _424  and  _427
REMARK  177  A    between atoms: _427  and  _428
REMARK  178  A    between atoms: _431  and  _433
REMARK  179  A    between atoms: _433  and  _434
REMARK  180  A    between atoms: _436  and  _438
REMARK  181  A    between atoms: _438  and  _439
REMARK  182  A    between atoms: _438  and  _441
REMARK  183  A    between atoms: _441  and  _442
REMARK  184  A    between atoms: _442  and  _443
REMARK  185  A    between atoms: _446  and  _448
REMARK  186  A    between atoms: _448  and  _449
REMARK  187  A    between atoms: _448  and  _451
REMARK  188  A    between atoms: _451  and  _452
REMARK  189  A    between atoms: _452  and  _453
REMARK  190  A    between atoms: _455  and  _457
REMARK  191  A    between atoms: _457  and  _458
REMARK  192  A    between atoms: _457  and  _460
REMARK  193  A    between atoms: _460  and  _461
REMARK  194  A    between atoms: _464  and  _466
REMARK  195  A    between atoms: _466  and  _467
REMARK  196  A    between atoms: _466  and  _469
REMARK  197  A    between atoms: _469  and  _470
REMARK  198  A    between atoms: _470  and  _471
REMARK  199  A    between atoms: _474  and  _476
REMARK  200  A    between atoms: _476  and  _477
REMARK  201  A    between atoms: _476  and  _479
REMARK  202  A    between atoms: _479  and  _480
REMARK  203  A    between atoms: _480  and  _481
REMARK  204  A    between atoms: _484  and  _486
REMARK  205  A    between atoms: _486  and  _487
REMARK  206  A    between atoms: _486  and  _489
REMARK  207  A    between atoms: _489  and  _490
REMARK  208  A    between atoms: _492  and  _494
REMARK  209  A    between atoms: _494  and  _495
REMARK  210  A    between atoms: _494  and  _497
REMARK  211  A    between atoms: _497  and  _498
REMARK  212  A    between atoms: _501  and  _503
REMARK  213  A    between atoms: _503  and  _504
REMARK  214  A    between atoms: _503  and  _506
REMARK  215  A    between atoms: _506  and  _507
REMARK  216  A    between atoms: _512  and  _514
REMARK  217  A    between atoms: _514  and  _515
REMARK  218  A    between atoms: _514  and  _517
REMARK  219  A    between atoms: _519  and  _521
REMARK  220  A    between atoms: _525  and  _527
REMARK  221  A    between atoms: _532  and  _535
REMARK  222  A    between atoms: _535  and  _536
REMARK  223  A    between atoms: _541  and  _544
REMARK  224  A    between atoms: _542  and  _551
REMARK  225  A    between atoms: _544  and  _545
REMARK  226  A    between atoms: _545  and  _546
REMARK  227  A    between atoms: _551  and  _553
REMARK  228  A    between atoms: _553  and  _554
REMARK  229  A    between atoms: _553  and  _556
REMARK  230  A    between atoms: _556  and  _557
REMARK  231  A    between atoms: _557  and  _558
REMARK  232  A    between atoms: _558  and  _559
REMARK  233  A    between atoms: _568  and  _570
REMARK  234  A    between atoms: _570  and  _571
REMARK  235  A    between atoms: _570  and  _573
REMARK  236  A    between atoms: _573  and  _574
REMARK  237  A    between atoms: _577  and  _579
REMARK  238  A    between atoms: _579  and  _580
REMARK  239  A    between atoms: _579  and  _582
REMARK  240  A    between atoms: _582  and  _583
REMARK  241  A    between atoms: _586  and  _588
REMARK  242  A    between atoms: _588  and  _589
REMARK  243  A    between atoms: _592  and  _593
REMARK  244  A    between atoms: _598  and  _600
REMARK  245  A    between atoms: _600  and  _601
REMARK  246  A    between atoms: _600  and  _603
REMARK  247  A    between atoms: _606  and  _608
REMARK  248  A    between atoms: _608  and  _609
REMARK  249  A    between atoms: _608  and  _611
REMARK  250  A    between atoms: _611  and  _612
REMARK  251  A    between atoms: _612  and  _613
REMARK  252  A    between atoms: _618  and  _620
REMARK  253  A    between atoms: _620  and  _621
REMARK  254  A    between atoms: _620  and  _623
REMARK  255  A    between atoms: _623  and  _624
REMARK  256  A    between atoms: _627  and  _629
REMARK  257  A    between atoms: _629  and  _630
REMARK  258  A    between atoms: _629  and  _632
REMARK  259  A    between atoms: _632  and  _633
REMARK  260  A    between atoms: _633  and  _634
REMARK  261  A    between atoms: _634  and  _635
REMARK  262  A    between atoms: _635  and  _636
REMARK  263  A    between atoms: _640  and  _642
REMARK  264  A    between atoms: _642  and  _643
REMARK  265  A    between atoms: _645  and  _647
REMARK  266  A    between atoms: _647  and  _648
REMARK  267  A    between atoms: _647  and  _650
REMARK  268  A    between atoms: _650  and  _651
REMARK                            x       y       z     vdW  Elec       q    Type
REMARK                         _______ _______ _______ _____ _____    ______ ____
ROOT
ATOM      1  NE  ARG A   1      36.851 -28.369  15.950  0.00  0.00    -0.265 N 
ATOM      2  HE  ARG A   1      36.621 -28.624  16.932  0.00  0.00    +0.259 HD
ATOM      3  CZ  ARG A   1      35.954 -28.630  15.014  0.00  0.00    +0.342 C 
ATOM      4  NH2 ARG A   1      34.806 -29.209  15.343  0.00  0.00    -0.292 N 
ATOM      5 HH21 ARG A   1      34.614 -29.456  16.335  0.00  0.00    +0.255 HD
ATOM      6 HH22 ARG A   1      34.099 -29.415  14.609  0.00  0.00    +0.255 HD
ATOM      7  NH1 ARG A   1      36.212 -28.320  13.750  0.00  0.00    -0.292 N 
ATOM      8 HH11 ARG A   1      37.117 -27.873  13.498  0.00  0.00    +0.255 HD
ATOM      9 HH12 ARG A   1      35.509 -28.524  13.011  0.00  0.00    +0.255 HD
ENDROOT
BRANCH   1  10
ATOM     10  CD  ARG A   1      38.139 -27.748  15.691  0.00  0.00    +0.174 C 
BRANCH  10  11
ATOM     11  CG  ARG A   1      39.146 -28.218  16.677  0.00  0.00    +0.045 C 
BRANCH  11  12
ATOM     12  CB  ARG A   1      40.484 -27.579  16.436  0.00  0.00    +0.029 C 
BRANCH  12  13
ATOM     13  CA  ARG A   1      41.624 -28.386  17.049  0.00  0.00    +0.133 C 
BRANCH  13  14
ATOM     14  N   ARG A   1      41.585 -28.297  18.507  0.00  0.00    -0.239 NA
ATOM     15  H   ARG A   1      41.443 -29.170  19.053  0.00  0.00    +0.142 HD
ENDBRANCH  13  14
BRANCH  13  16
ATOM     16  C   ARG A   1      42.945 -27.998  16.387  0.00  0.00    +0.224 C 
ATOM     17  O   ARG A   1      42.974 -27.555  15.236  0.00  0.00    -0.287 OA
ENDBRANCH  13  16
ENDBRANCH  12  13
ENDBRANCH  11  12
ENDBRANCH  10  11
ENDBRANCH   1  10
TORSDOF 6
REMARK  Name = ../refined-set-2016/1rp7/1rp7_pocket.pdb
REMARK  268 active torsions:
REMARK  status: ('A' for Active; 'I' for Inactive)
REMARK    1  A    between atoms: _1  and  _3
REMARK    2  A    between atoms: _3  and  _4
REMARK    3  A    between atoms: _7  and  _9
REMARK    4  A    between atoms: _9  and  _10
REMARK    5  A    between atoms: _9  and  _12
REMARK    6  A    between atoms: _12  and  _13
REMARK    7  A    between atoms: _16  and  _18
REMARK    8  A    between atoms: _18  and  _19
REMARK    9  A    between atoms: _18  and  _21
REMARK   10  A    between atoms: _21  and  _22
REMARK   11  A    between atoms: _22  and  _23
REMARK   12  A    between atoms: _26  and  _28
REMARK   13  A    between atoms: _28  and  _29
REMARK   14  A    between atoms: _28  and  _31
REMARK   15  A    between atoms: _31  and  _32
REMARK   16  A    between atoms: _35  and  _37
REMARK   17  A    between atoms: _37  and  _38
REMARK   18  A    between atoms: _40  and  _42
REMARK   19  A    between atoms: _42  and  _43
REMARK   20  A    between atoms: _42  and  _45
REMARK   21  A    between atoms: _45  and  _46
REMARK   22  A    between atoms: _49  and  _51
REMARK   23  A    between atoms: _51  and  _52
REMARK   24  A    between atoms: _51  and  _54
REMARK   25  A    between atoms: _54  and  _55
REMARK   26  A    between atoms: _60  and  _62
REMARK   27  A    between atoms: _62  and  _63
REMARK   28  A    between atoms: _62  and  _65
REMARK   29  A    between atoms: _65  and  _66
REMARK   30  A    between atoms: _66  and  _67
REMARK   31  A    between atoms: _70  and  _72
REMARK   32  A    between atoms: _72  and  _73
REMARK   33  A    between atoms: _72  and  _75
REMARK   34  A    between atoms: _75  and  _76
REMARK   35  A    between atoms: _79  and  _81
REMARK   36  A    between atoms: _81  and  _82
REMARK   37  A    between atoms: _81  and  _84
REMARK   38  A    between atoms: _84  and  _85
REMARK   39  A    between atoms: _90  and  _91
REMARK   40  A    between atoms: _93  and  _95
REMARK   41  A    between atoms: _95  and  _96
REMARK   42  A    between atoms: _95  and  _98
REMARK   43  A    between atoms: _98  and  _99
REMARK   44  A    between atoms: _104  and  _105
REMARK   45  A    between atoms: _107  and  _109
REMARK   46  A    between atoms: _109  and  _110
REMARK   47  A    between atoms: _109  and  _112
REMARK   48  A    between atoms: _112  and  _113
REMARK   49  A    between atoms: _118  and  _119
REMARK   50  A    between atoms: _121  and  _123
REMARK   51  A    between atoms: _123  and  _124
REMARK   52  A    between atoms: _123  and  _126
REMARK   53  A    between atoms: _126  and  _127
REMARK   54  A    between atoms: _127  and  _128
REMARK   55  A    between atoms: _130  and  _132
REMARK   56  A    between atoms: _132  and  _133
REMARK   57  A    between atoms: _132  and  _135
REMARK   58  A    between atoms: _135  and  _136
REMARK   59  A    between atoms: _142  and  _144
REMARK   60  A    between atoms: _144  and  _145
REMARK   61  A    between atoms: _144  and  _147
REMARK   62  A    between atoms: _147  and  _148
REMARK   63  A    between atoms: _148  and  _149
REMARK   64  A    between atoms: _149  and  _150
REMARK   65  A    between atoms: _159  and  _161
REMARK   66  A    between atoms: _161  and  _162
REMARK   67  A    between atoms: _161  and  _164
REMARK   68  A    between atoms: _164  and  _165
REMARK   69  A    between atoms: _165  and  _166
REMARK   70  A    between atoms: _169  and  _171
REMARK   71  A    between atoms: _171  and  _172
REMARK   72  A    between atoms: _171  and  _174
REMARK   73  A    between atoms: _174  and  _175
REMARK   74  A    between atoms: _175  and  _176
REMARK   75  A    between atoms: _181  and  _183
REMARK   76  A    between atoms: _183  and  _184
REMARK   77  A    between atoms: _183  and  _186
REMARK   78  A    between atoms: _186  and  _187
REMARK   79  A    between atoms: _192  and  _194
REMARK   80  A    between atoms: _194  and  _195
REMARK   81  A    between atoms: _194  and  _197
REMARK   82  A    between atoms: _197  and  _198
REMARK   83  A    between atoms: _203  and  _205
REMARK   84  A    between atoms: _205  and  _206
REMARK   85  A    between atoms: _205  and  _208
REMARK   86  A    between atoms: _208  and  _209
REMARK   87  A    between atoms: _209  and  _210
REMARK   88  A    between atoms: _212  and  _214
REMARK   89  A    between atoms: _214  and  _215
REMARK   90  A    between atoms: _218  and  _220
REMARK   91  A    between atoms: _220  and  _221
REMARK   92  A    between atoms: _220  and  _223
REMARK   93  A    between atoms: _223  and  _224
REMARK   94  A    between atoms: _226  and  _228
REMARK   95  A    between atoms: _228  and  _229
REMARK   96  A    between atoms: _228  and  _231
REMARK   97  A    between atoms: _231  and  _232
REMARK   98  A    between atoms: _238  and  _240
REMARK   99  A    between atoms: _240  and  _241
REMARK  100  A    between atoms: _240  and  _243
REMARK  101  A    between atoms: _243  and  _244
REMARK  102  A    between atoms: _244  and  _245
REMARK  103  A    between atoms: _250  and  _252
REMARK  104  A    between atoms: _252  and  _253
REMARK  105  A    between atoms: _252  and  _255
REMARK  106  A    between atoms: _255  and  _256
REMARK  107  A    between atoms: _258  and  _260
REMARK  108  A    between atoms: _260  and  _261
REMARK  109  A    between atoms: _260  and  _263
REMARK  110  A    between atoms: _263  and  _264
REMARK  111  A    between atoms: _266  and  _268
REMARK  112  A    between atoms: _268  and  _269
REMARK  113  A    between atoms: _268  and  _271
REMARK  114  A    between atoms: _271  and  _272
REMARK  115  A    between atoms: _277  and  _278
REMARK  116  A    between atoms: _280  and  _282
REMARK  117  A    between atoms: _282  and  _283
REMARK  118  A    between atoms: _282  and  _285
REMARK  119  A    between atoms: _285  and  _286
REMARK  120  A    between atoms: _286  and  _287
REMARK  121  A    between atoms: _292  and  _294
REMARK  122  A    between atoms: _294  and  _295
REMARK  123  A    between atoms: _297  and  _299
REMARK  124  A    between atoms: _299  and  _300
REMARK  125  A    between atoms: _299  and  _302
REMARK  126  A    between atoms: _302  and  _303
REMARK  127  A    between atoms: _308  and  _310
REMARK  128  A    between atoms: _310  and  _311
REMARK  129  A    between atoms: _310  and  _313
REMARK  130  A    between atoms: _313  and  _314
REMARK  131  A    between atoms: _317  and  _319
REMARK  132  A    between atoms: _319  and  _320
REMARK  133  A    between atoms: _319  and  _322
REMARK  134  A    between atoms: _322  and  _323
REMARK  135  A    between atoms: _323  and  _324
REMARK  136  A    between atoms: _324  and  _325
REMARK  137  A    between atoms: _334  and  _336
REMARK  138  A    between atoms: _336  and  _337
REMARK  139  A    between atoms: _336  and  _339
REMARK  140  A    between atoms: _339  and  _340
REMARK  141  A    between atoms: _345  and  _346
REMARK  142  A    between atoms: _348  and  _350
REMARK  143  A    between atoms: _350  and  _351
REMARK  144  A    between atoms: _350  and  _353
REMARK  145  A    between atoms: _353  and  _354
REMARK  146  A    between atoms: _357  and  _359
REMARK  147  A    between atoms: _359  and  _360
REMARK  148  A    between atoms: _359  and  _362
REMARK  149  A    between atoms: _365  and  _367
REMARK  150  A    between atoms: _367  and  _368
REMARK  151  A    between atoms: _367  and  _370
REMARK  152  A    between atoms: _370  and  _371
REMARK  153  A    between atoms: _373  and  _375
REMARK  154  A    between atoms: _375  and  _376
REMARK  155  A    between atoms: _375  and  _378
REMARK  156  A    between atoms: _378  and  _379
REMARK  157  A    between atoms: _379  and  _380
REMARK  158  A    between atoms: _382  and  _384
REMARK  159  A    between atoms: _384  and  _385
REMARK  160  A    between atoms: _387  and  _389
REMARK  161  A    between atoms: _389  and  _390
REMARK  162  A    between atoms: _389  and  _392
REMARK  163  A    between atoms: _392  and  _393
REMARK  164  A    between atoms: _396  and  _398
REMARK  165  A    between atoms: _398  and  _399
REMARK  166  A    between atoms: _398  and  _401
REMARK  167  A    between atoms: _401  and  _402
REMARK  168  A    between atoms: _408  and  _410
REMARK  169  A    between atoms: _410  and  _411
REMARK  170  A    between atoms: _410  and  _413
REMARK  171  A    between atoms: _413  and  _414
REMARK  172  A    between atoms: _417  and  _419
REMARK  173  A    between atoms: _419  and  _420
REMARK  174  A    between atoms: _422  and  _424
REMARK  175  A    between atoms: _424  and  _425
REMARK  176  A    between atoms: _424  and  _427
REMARK  177  A    between atoms: _427  and  _428
REMARK  178  A    between atoms: _431  and  _433
REMARK  179  A    between atoms: _433  and  _434
REMARK  180  A    between atoms: _436  and  _438
REMARK  181  A    between atoms: _438  and  _439
REMARK  182  A    between atoms: _438  and  _441
REMARK  183  A    between atoms: _441  and  _442
REMARK  184  A    between atoms: _442  and  _443
REMARK  185  A    between atoms: _446  and  _448
REMARK  186  A    between atoms: _448  and  _449
REMARK  187  A    between atoms: _448  and  _451
REMARK  188  A    between atoms: _451  and  _452
REMARK  189  A    between atoms: _452  and  _453
REMARK  190  A    between atoms: _455  and  _457
REMARK  191  A    between atoms: _457  and  _458
REMARK  192  A    between atoms: _457  and  _460
REMARK  193  A    between atoms: _460  and  _461
REMARK  194  A    between atoms: _464  and  _466
REMARK  195  A    between atoms: _466  and  _467
REMARK  196  A    between atoms: _466  and  _469
REMARK  197  A    between atoms: _469  and  _470
REMARK  198  A    between atoms: _470  and  _471
REMARK  199  A    between atoms: _474  and  _476
REMARK  200  A    between atoms: _476  and  _477
REMARK  201  A    between atoms: _476  and  _479
REMARK  202  A    between atoms: _479  and  _480
REMARK  203  A    between atoms: _480  and  _481
REMARK  204  A    between atoms: _484  and  _486
REMARK  205  A    between atoms: _486  and  _487
REMARK  206  A    between atoms: _486  and  _489
REMARK  207  A    between atoms: _489  and  _490
REMARK  208  A    between atoms: _492  and  _494
REMARK  209  A    between atoms: _494  and  _495
REMARK  210  A    between atoms: _494  and  _497
REMARK  211  A    between atoms: _497  and  _498
REMARK  212  A    between atoms: _501  and  _503
REMARK  213  A    between atoms: _503  and  _504
REMARK  214  A    between atoms: _503  and  _506
REMARK  215  A    between atoms: _506  and  _507
REMARK  216  A    between atoms: _512  and  _514
REMARK  217  A    between atoms: _514  and  _515
REMARK  218  A    between atoms: _514  and  _517
REMARK  219  A    between atoms: _519  and  _521
REMARK  220  A    between atoms: _525  and  _527
REMARK  221  A    between atoms: _532  and  _535
REMARK  222  A    between atoms: _535  and  _536
REMARK  223  A    between atoms: _541  and  _544
REMARK  224  A    between atoms: _542  and  _551
REMARK  225  A    between atoms: _544  and  _545
REMARK  226  A    between atoms: _545  and  _546
REMARK  227  A    between atoms: _551  and  _553
REMARK  228  A    between atoms: _553  and  _554
REMARK  229  A    between atoms: _553  and  _556
REMARK  230  A    between atoms: _556  and  _557
REMARK  231  A    between atoms: _557  and  _558
REMARK  232  A    between atoms: _558  and  _559
REMARK  233  A    between atoms: _568  and  _570
REMARK  234  A    between atoms: _570  and  _571
REMARK  235  A    between atoms: _570  and  _573
REMARK  236  A    between atoms: _573  and  _574
REMARK  237  A    between atoms: _577  and  _579
REMARK  238  A    between atoms: _579  and  _580
REMARK  239  A    between atoms: _579  and  _582
REMARK  240  A    between atoms: _582  and  _583
REMARK  241  A    between atoms: _586  and  _588
REMARK  242  A    between atoms: _588  and  _589
REMARK  243  A    between atoms: _592  and  _593
REMARK  244  A    between atoms: _598  and  _600
REMARK  245  A    between atoms: _600  and  _601
REMARK  246  A    between atoms: _600  and  _603
REMARK  247  A    between atoms: _606  and  _608
REMARK  248  A    between atoms: _608  and  _609
REMARK  249  A    between atoms: _608  and  _611
REMARK  250  A    between atoms: _611  and  _612
REMARK  251  A    between atoms: _612  and  _613
REMARK  252  A    between atoms: _618  and  _620
REMARK  253  A    between atoms: _620  and  _621
REMARK  254  A    between atoms: _620  and  _623
REMARK  255  A    between atoms: _623  and  _624
REMARK  256  A    between atoms: _627  and  _629
REMARK  257  A    between atoms: _629  and  _630
REMARK  258  A    between atoms: _629  and  _632
REMARK  259  A    between atoms: _632  and  _633
REMARK  260  A    between atoms: _633  and  _634
REMARK  261  A    between atoms: _634  and  _635
REMARK  262  A    between atoms: _635  and  _636
REMARK  263  A    between atoms: _640  and  _642
REMARK  264  A    between atoms: _642  and  _643
REMARK  265  A    between atoms: _645  and  _647
REMARK  266  A    between atoms: _647  and  _648
REMARK  267  A    between atoms: _647  and  _650
REMARK  268  A    between atoms: _650  and  _651
REMARK                            x       y       z     vdW  Elec       q    Type
REMARK                         _______ _______ _______ _____ _____    ______ ____
ROOT
ATOM      1  CG  TYR A   1      34.531 -34.330  15.911  0.00  0.00    -0.020 A 
ATOM      2  CD2 TYR A   1      33.643 -33.393  16.450  0.00  0.00    -0.001 A 
ATOM      3  CE2 TYR A   1      33.155 -32.325  15.691  0.00  0.00    +0.036 A 
ATOM      4  CZ  TYR A   1      33.554 -32.183  14.375  0.00  0.00    +0.134 A 
ATOM      5  CE1 TYR A   1      34.440 -33.096  13.804  0.00  0.00    +0.036 A 
ATOM      6  CD1 TYR A   1      34.927 -34.169  14.581  0.00  0.00    -0.001 A 
ENDROOT
BRANCH   4   7
ATOM      7  OH  TYR A   1      33.062 -31.135  13.638  0.00  0.00    -0.506 OA
ATOM      8  HH  TYR A   1      33.813 -30.570  13.327  0.00  0.00    +0.292 HD
ENDBRANCH   4   7
BRANCH   1   9
ATOM      9  CB  TYR A   1      35.015 -35.505  16.737  0.00  0.00    +0.051 C 
BRANCH   9  10
ATOM     10  CA  TYR A   1      35.952 -35.130  17.886  0.00  0.00    +0.137 C 
BRANCH  10  11
ATOM     11  N   TYR A   1      36.909 -34.138  17.399  0.00  0.00    -0.239 NA
ATOM     12  H   TYR A   1      37.676 -34.448  16.768  0.00  0.00    +0.142 HD
ENDBRANCH  10  11
BRANCH  10  13
ATOM     13  C   TYR A   1      36.579 -36.399  18.470  0.00  0.00    +0.224 C 
ATOM     14  O   TYR A   1      37.797 -36.548  18.488  0.00  0.00    -0.287 OA
ENDBRANCH  10  13
ENDBRANCH   9  10
ENDBRANCH   1   9
TORSDOF 5
REMARK  Name = ../refined-set-2016/1rp7/1rp7_pocket.pdb
REMARK  268 active torsions:
REMARK  status: ('A' for Active; 'I' for Inactive)
REMARK    1  A    between atoms: _1  and  _3
REMARK    2  A    between atoms: _3  and  _4
REMARK    3  A    between atoms: _7  and  _9
REMARK    4  A    between atoms: _9  and  _10
REMARK    5  A    between atoms: _9  and  _12
REMARK    6  A    between atoms: _12  and  _13
REMARK    7  A    between atoms: _16  and  _18
REMARK    8  A    between atoms: _18  and  _19
REMARK    9  A    between atoms: _18  and  _21
REMARK   10  A    between atoms: _21  and  _22
REMARK   11  A    between atoms: _22  and  _23
REMARK   12  A    between atoms: _26  and  _28
REMARK   13  A    between atoms: _28  and  _29
REMARK   14  A    between atoms: _28  and  _31
REMARK   15  A    between atoms: _31  and  _32
REMARK   16  A    between atoms: _35  and  _37
REMARK   17  A    between atoms: _37  and  _38
REMARK   18  A    between atoms: _40  and  _42
REMARK   19  A    between atoms: _42  and  _43
REMARK   20  A    between atoms: _42  and  _45
REMARK   21  A    between atoms: _45  and  _46
REMARK   22  A    between atoms: _49  and  _51
REMARK   23  A    between atoms: _51  and  _52
REMARK   24  A    between atoms: _51  and  _54
REMARK   25  A    between atoms: _54  and  _55
REMARK   26  A    between atoms: _60  and  _62
REMARK   27  A    between atoms: _62  and  _63
REMARK   28  A    between atoms: _62  and  _65
REMARK   29  A    between atoms: _65  and  _66
REMARK   30  A    between atoms: _66  and  _67
REMARK   31  A    between atoms: _70  and  _72
REMARK   32  A    between atoms: _72  and  _73
REMARK   33  A    between atoms: _72  and  _75
REMARK   34  A    between atoms: _75  and  _76
REMARK   35  A    between atoms: _79  and  _81
REMARK   36  A    between atoms: _81  and  _82
REMARK   37  A    between atoms: _81  and  _84
REMARK   38  A    between atoms: _84  and  _85
REMARK   39  A    between atoms: _90  and  _91
REMARK   40  A    between atoms: _93  and  _95
REMARK   41  A    between atoms: _95  and  _96
REMARK   42  A    between atoms: _95  and  _98
REMARK   43  A    between atoms: _98  and  _99
REMARK   44  A    between atoms: _104  and  _105
REMARK   45  A    between atoms: _107  and  _109
REMARK   46  A    between atoms: _109  and  _110
REMARK   47  A    between atoms: _109  and  _112
REMARK   48  A    between atoms: _112  and  _113
REMARK   49  A    between atoms: _118  and  _119
REMARK   50  A    between atoms: _121  and  _123
REMARK   51  A    between atoms: _123  and  _124
REMARK   52  A    between atoms: _123  and  _126
REMARK   53  A    between atoms: _126  and  _127
REMARK   54  A    between atoms: _127  and  _128
REMARK   55  A    between atoms: _130  and  _132
REMARK   56  A    between atoms: _132  and  _133
REMARK   57  A    between atoms: _132  and  _135
REMARK   58  A    between atoms: _135  and  _136
REMARK   59  A    between atoms: _142  and  _144
REMARK   60  A    between atoms: _144  and  _145
REMARK   61  A    between atoms: _144  and  _147
REMARK   62  A    between atoms: _147  and  _148
REMARK   63  A    between atoms: _148  and  _149
REMARK   64  A    between atoms: _149  and  _150
REMARK   65  A    between atoms: _159  and  _161
REMARK   66  A    between atoms: _161  and  _162
REMARK   67  A    between atoms: _161  and  _164
REMARK   68  A    between atoms: _164  and  _165
REMARK   69  A    between atoms: _165  and  _166
REMARK   70  A    between atoms: _169  and  _171
REMARK   71  A    between atoms: _171  and  _172
REMARK   72  A    between atoms: _171  and  _174
REMARK   73  A    between atoms: _174  and  _175
REMARK   74  A    between atoms: _175  and  _176
REMARK   75  A    between atoms: _181  and  _183
REMARK   76  A    between atoms: _183  and  _184
REMARK   77  A    between atoms: _183  and  _186
REMARK   78  A    between atoms: _186  and  _187
REMARK   79  A    between atoms: _192  and  _194
REMARK   80  A    between atoms: _194  and  _195
REMARK   81  A    between atoms: _194  and  _197
REMARK   82  A    between atoms: _197  and  _198
REMARK   83  A    between atoms: _203  and  _205
REMARK   84  A    between atoms: _205  and  _206
REMARK   85  A    between atoms: _205  and  _208
REMARK   86  A    between atoms: _208  and  _209
REMARK   87  A    between atoms: _209  and  _210
REMARK   88  A    between atoms: _212  and  _214
REMARK   89  A    between atoms: _214  and  _215
REMARK   90  A    between atoms: _218  and  _220
REMARK   91  A    between atoms: _220  and  _221
REMARK   92  A    between atoms: _220  and  _223
REMARK   93  A    between atoms: _223  and  _224
REMARK   94  A    between atoms: _226  and  _228
REMARK   95  A    between atoms: _228  and  _229
REMARK   96  A    between atoms: _228  and  _231
REMARK   97  A    between atoms: _231  and  _232
REMARK   98  A    between atoms: _238  and  _240
REMARK   99  A    between atoms: _240  and  _241
REMARK  100  A    between atoms: _240  and  _243
REMARK  101  A    between atoms: _243  and  _244
REMARK  102  A    between atoms: _244  and  _245
REMARK  103  A    between atoms: _250  and  _252
REMARK  104  A    between atoms: _252  and  _253
REMARK  105  A    between atoms: _252  and  _255
REMARK  106  A    between atoms: _255  and  _256
REMARK  107  A    between atoms: _258  and  _260
REMARK  108  A    between atoms: _260  and  _261
REMARK  109  A    between atoms: _260  and  _263
REMARK  110  A    between atoms: _263  and  _264
REMARK  111  A    between atoms: _266  and  _268
REMARK  112  A    between atoms: _268  and  _269
REMARK  113  A    between atoms: _268  and  _271
REMARK  114  A    between atoms: _271  and  _272
REMARK  115  A    between atoms: _277  and  _278
REMARK  116  A    between atoms: _280  and  _282
REMARK  117  A    between atoms: _282  and  _283
REMARK  118  A    between atoms: _282  and  _285
REMARK  119  A    between atoms: _285  and  _286
REMARK  120  A    between atoms: _286  and  _287
REMARK  121  A    between atoms: _292  and  _294
REMARK  122  A    between atoms: _294  and  _295
REMARK  123  A    between atoms: _297  and  _299
REMARK  124  A    between atoms: _299  and  _300
REMARK  125  A    between atoms: _299  and  _302
REMARK  126  A    between atoms: _302  and  _303
REMARK  127  A    between atoms: _308  and  _310
REMARK  128  A    between atoms: _310  and  _311
REMARK  129  A    between atoms: _310  and  _313
REMARK  130  A    between atoms: _313  and  _314
REMARK  131  A    between atoms: _317  and  _319
REMARK  132  A    between atoms: _319  and  _320
REMARK  133  A    between atoms: _319  and  _322
REMARK  134  A    between atoms: _322  and  _323
REMARK  135  A    between atoms: _323  and  _324
REMARK  136  A    between atoms: _324  and  _325
REMARK  137  A    between atoms: _334  and  _336
REMARK  138  A    between atoms: _336  and  _337
REMARK  139  A    between atoms: _336  and  _339
REMARK  140  A    between atoms: _339  and  _340
REMARK  141  A    between atoms: _345  and  _346
REMARK  142  A    between atoms: _348  and  _350
REMARK  143  A    between atoms: _350  and  _351
REMARK  144  A    between atoms: _350  and  _353
REMARK  145  A    between atoms: _353  and  _354
REMARK  146  A    between atoms: _357  and  _359
REMARK  147  A    between atoms: _359  and  _360
REMARK  148  A    between atoms: _359  and  _362
REMARK  149  A    between atoms: _365  and  _367
REMARK  150  A    between atoms: _367  and  _368
REMARK  151  A    between atoms: _367  and  _370
REMARK  152  A    between atoms: _370  and  _371
REMARK  153  A    between atoms: _373  and  _375
REMARK  154  A    between atoms: _375  and  _376
REMARK  155  A    between atoms: _375  and  _378
REMARK  156  A    between atoms: _378  and  _379
REMARK  157  A    between atoms: _379  and  _380
REMARK  158  A    between atoms: _382  and  _384
REMARK  159  A    between atoms: _384  and  _385
REMARK  160  A    between atoms: _387  and  _389
REMARK  161  A    between atoms: _389  and  _390
REMARK  162  A    between atoms: _389  and  _392
REMARK  163  A    between atoms: _392  and  _393
REMARK  164  A    between atoms: _396  and  _398
REMARK  165  A    between atoms: _398  and  _399
REMARK  166  A    between atoms: _398  and  _401
REMARK  167  A    between atoms: _401  and  _402
REMARK  168  A    between atoms: _408  and  _410
REMARK  169  A    between atoms: _410  and  _411
REMARK  170  A    between atoms: _410  and  _413
REMARK  171  A    between atoms: _413  and  _414
REMARK  172  A    between atoms: _417  and  _419
REMARK  173  A    between atoms: _419  and  _420
REMARK  174  A    between atoms: _422  and  _424
REMARK  175  A    between atoms: _424  and  _425
REMARK  176  A    between atoms: _424  and  _427
REMARK  177  A    between atoms: _427  and  _428
REMARK  178  A    between atoms: _431  and  _433
REMARK  179  A    between atoms: _433  and  _434
REMARK  180  A    between atoms: _436  and  _438
REMARK  181  A    between atoms: _438  and  _439
REMARK  182  A    between atoms: _438  and  _441
REMARK  183  A    between atoms: _441  and  _442
REMARK  184  A    between atoms: _442  and  _443
REMARK  185  A    between atoms: _446  and  _448
REMARK  186  A    between atoms: _448  and  _449
REMARK  187  A    between atoms: _448  and  _451
REMARK  188  A    between atoms: _451  and  _452
REMARK  189  A    between atoms: _452  and  _453
REMARK  190  A    between atoms: _455  and  _457
REMARK  191  A    between atoms: _457  and  _458
REMARK  192  A    between atoms: _457  and  _460
REMARK  193  A    between atoms: _460  and  _461
REMARK  194  A    between atoms: _464  and  _466
REMARK  195  A    between atoms: _466  and  _467
REMARK  196  A    between atoms: _466  and  _469
REMARK  197  A    between atoms: _469  and  _470
REMARK  198  A    between atoms: _470  and  _471
REMARK  199  A    between atoms: _474  and  _476
REMARK  200  A    between atoms: _476  and  _477
REMARK  201  A    between atoms: _476  and  _479
REMARK  202  A    between atoms: _479  and  _480
REMARK  203  A    between atoms: _480  and  _481
REMARK  204  A    between atoms: _484  and  _486
REMARK  205  A    between atoms: _486  and  _487
REMARK  206  A    between atoms: _486  and  _489
REMARK  207  A    between atoms: _489  and  _490
REMARK  208  A    between atoms: _492  and  _494
REMARK  209  A    between atoms: _494  and  _495
REMARK  210  A    between atoms: _494  and  _497
REMARK  211  A    between atoms: _497  and  _498
REMARK  212  A    between atoms: _501  and  _503
REMARK  213  A    between atoms: _503  and  _504
REMARK  214  A    between atoms: _503  and  _506
REMARK  215  A    between atoms: _506  and  _507
REMARK  216  A    between atoms: _512  and  _514
REMARK  217  A    between atoms: _514  and  _515
REMARK  218  A    between atoms: _514  and  _517
REMARK  219  A    between atoms: _519  and  _521
REMARK  220  A    between atoms: _525  and  _527
REMARK  221  A    between atoms: _532  and  _535
REMARK  222  A    between atoms: _535  and  _536
REMARK  223  A    between atoms: _541  and  _544
REMARK  224  A    between atoms: _542  and  _551
REMARK  225  A    between atoms: _544  and  _545
REMARK  226  A    between atoms: _545  and  _546
REMARK  227  A    between atoms: _551  and  _553
REMARK  228  A    between atoms: _553  and  _554
REMARK  229  A    between atoms: _553  and  _556
REMARK  230  A    between atoms: _556  and  _557
REMARK  231  A    between atoms: _557  and  _558
REMARK  232  A    between atoms: _558  and  _559
REMARK  233  A    between atoms: _568  and  _570
REMARK  234  A    between atoms: _570  and  _571
REMARK  235  A    between atoms: _570  and  _573
REMARK  236  A    between atoms: _573  and  _574
REMARK  237  A    between atoms: _577  and  _579
REMARK  238  A    between atoms: _579  and  _580
REMARK  239  A    between atoms: _579  and  _582
REMARK  240  A    between atoms: _582  and  _583
REMARK  241  A    between atoms: _586  and  _588
REMARK  242  A    between atoms: _588  and  _589
REMARK  243  A    between atoms: _592  and  _593
REMARK  244  A    between atoms: _598  and  _600
REMARK  245  A    between atoms: _600  and  _601
REMARK  246  A    between atoms: _600  and  _603
REMARK  247  A    between atoms: _606  and  _608
REMARK  248  A    between atoms: _608  and  _609
REMARK  249  A    between atoms: _608  and  _611
REMARK  250  A    between atoms: _611  and  _612
REMARK  251  A    between atoms: _612  and  _613
REMARK  252  A    between atoms: _618  and  _620
REMARK  253  A    between atoms: _620  and  _621
REMARK  254  A    between atoms: _620  and  _623
REMARK  255  A    between atoms: _623  and  _624
REMARK  256  A    between atoms: _627  and  _629
REMARK  257  A    between atoms: _629  and  _630
REMARK  258  A    between atoms: _629  and  _632
REMARK  259  A    between atoms: _632  and  _633
REMARK  260  A    between atoms: _633  and  _634
REMARK  261  A    between atoms: _634  and  _635
REMARK  262  A    between atoms: _635  and  _636
REMARK  263  A    between atoms: _640  and  _642
REMARK  264  A    between atoms: _642  and  _643
REMARK  265  A    between atoms: _645  and  _647
REMARK  266  A    between atoms: _647  and  _648
REMARK  267  A    between atoms: _647  and  _650
REMARK  268  A    between atoms: _650  and  _651
REMARK                            x       y       z     vdW  Elec       q    Type
REMARK                         _______ _______ _______ _____ _____    ______ ____
ROOT
ATOM      1  C   SER A   3      28.842 -40.376  11.893  0.00  0.00    +0.243 C 
ATOM      2  O   SER A   3      28.790 -41.528  12.330  0.00  0.00    -0.273 OA
ATOM      3  N   MET A   4      27.793 -39.559  11.856  0.00  0.00    -0.297 N 
ATOM      4  H   MET A   4      27.915 -38.603  11.465  0.00  0.00    +0.150 HD
ENDROOT
BRANCH   3   5
ATOM      5  CA  MET A   4      26.475 -39.958  12.345  0.00  0.00    +0.149 C 
BRANCH   5   6
ATOM      6  C   MET A   4      25.981 -41.280  11.798  0.00  0.00    +0.241 C 
ATOM      7  N   GLY A   5      25.220 -41.979  12.635  0.00  0.00    -0.295 N 
ATOM      8  H   GLY A   5      25.017 -41.595  13.580  0.00  0.00    +0.150 HD
ATOM      9  O   MET A   4      26.267 -41.646  10.653  0.00  0.00    -0.273 OA
BRANCH   7  10
ATOM     10  CA  GLY A   5      24.668 -43.265  12.259  0.00  0.00    +0.176 C 
BRANCH  10  11
ATOM     11  C   GLY A   5      25.526 -44.441  12.697  0.00  0.00    +0.243 C 
ATOM     12  O   GLY A   5      25.012 -45.495  13.027  0.00  0.00    -0.273 OA
ATOM     13  N   LEU A   6      26.839 -44.258  12.702  0.00  0.00    -0.298 N 
ATOM     14  H   LEU A   6      27.221 -43.332  12.422  0.00  0.00    +0.150 HD
BRANCH  13  15
ATOM     15  CA  LEU A   6      27.762 -45.318  13.089  0.00  0.00    +0.137 C 
BRANCH  15  16
ATOM     16  C   LEU A   6      27.701 -45.620  14.588  0.00  0.00    +0.227 C 
ATOM     17  O   LEU A   6      27.696 -46.785  14.993  0.00  0.00    -0.286 OA
ENDBRANCH  15  16
BRANCH  15  18
ATOM     18  CB  LEU A   6      29.181 -44.928  12.671  0.00  0.00    +0.028 C 
BRANCH  18  19
ATOM     19  CG  LEU A   6      29.665 -45.394  11.290  0.00  0.00    +0.002 C 
ATOM     20  CD2 LEU A   6      30.723 -44.443  10.803  0.00  0.00    +0.000 C 
ATOM     21  CD1 LEU A   6      28.525 -45.487  10.292  0.00  0.00    +0.000 C 
ENDBRANCH  18  19
ENDBRANCH  15  18
ENDBRANCH  13  15
ENDBRANCH  10  11
ENDBRANCH   7  10
ENDBRANCH   5   6
BRANCH   5  22
ATOM     22  CB  MET A   4      25.421 -38.884  12.043  0.00  0.00    +0.041 C 
BRANCH  22  23
ATOM     23  CG  MET A   4      25.964 -37.493  11.783  0.00  0.00    +0.060 C 
BRANCH  23  24
ATOM     24  SD  MET A   4      25.575 -36.329  13.077  0.00  0.00    -0.139 S 
ATOM     25  CE  MET A   4      26.456 -37.087  14.390  0.00  0.00    +0.069 C 
ENDBRANCH  23  24
ENDBRANCH  22  23
ENDBRANCH   5  22
ENDBRANCH   3   5
BRANCH   1  26
ATOM     26  CA  SER A   3      30.155 -39.790  11.384  0.00  0.00    +0.178 C 
BRANCH  26  29
ATOM     27  C   VAL A   2      30.437 -38.260  13.193  0.00  0.00    +0.241 C 
ATOM     28  O   VAL A   2      29.564 -37.544  12.719  0.00  0.00    -0.273 OA
ATOM     29  N   SER A   3      30.838 -39.373  12.596  0.00  0.00    -0.295 N 
ATOM     30  H   SER A   3      31.622 -39.934  12.986  0.00  0.00    +0.150 HD
BRANCH  27  31
ATOM     31  CA  VAL A   2      31.123 -37.859  14.478  0.00  0.00    +0.148 C 
BRANCH  31  34
ATOM     32  C   THR A   1      30.615 -39.841  15.750  0.00  0.00    +0.241 C 
ATOM     33  O   THR A   1      29.435 -39.732  15.414  0.00  0.00    -0.274 OA
ATOM     34  N   VAL A   2      31.544 -38.982  15.326  0.00  0.00    -0.297 N 
ATOM     35  H   VAL A   2      32.542 -39.105  15.590  0.00  0.00    +0.150 HD
BRANCH  32  36
ATOM     36  CA  THR A   1      31.017 -41.005  16.665  0.00  0.00    +0.172 C 
BRANCH  36  37
ATOM     37  N   THR A   1      32.435 -41.248  16.929  0.00  0.00    -0.236 NA
ATOM     38  H   THR A   1      32.997 -40.515  17.407  0.00  0.00    +0.142 HD
ENDBRANCH  36  37
BRANCH  36  39
ATOM     39  CB  THR A   1      30.228 -40.817  17.984  0.00  0.00    +0.135 C 
ATOM     40  CG2 THR A   1      30.211 -42.098  18.790  0.00  0.00    +0.034 C 
BRANCH  39  41
ATOM     41  OG1 THR A   1      30.829 -39.778  18.762  0.00  0.00    -0.383 OA
ATOM     42  HG1 THR A   1      30.321 -39.662  19.604  0.00  0.00    +0.210 HD
ENDBRANCH  39  41
ENDBRANCH  36  39
ENDBRANCH  32  36
ENDBRANCH  31  34
BRANCH  31  43
ATOM     43  CB  VAL A   2      32.251 -36.888  14.061  0.00  0.00    +0.027 C 
ATOM     44  CG2 VAL A   2      33.579 -37.329  14.580  0.00  0.00    +0.002 C 
ATOM     45  CG1 VAL A   2      31.886 -35.491  14.525  0.00  0.00    +0.002 C 
ENDBRANCH  31  43
ENDBRANCH  27  31
ENDBRANCH  26  29
BRANCH  26  46
ATOM     46  CB  SER A   3      30.966 -40.839  10.623  0.00  0.00    +0.166 C 
BRANCH  46  47
ATOM     47  OG  SER A   3      30.364 -41.101   9.366  0.00  0.00    -0.380 OA
ATOM     48  H   SER A   3      30.896 -41.781   8.882  0.00  0.00    +0.211 HD
ENDBRANCH  46  47
ENDBRANCH  26  46
ENDBRANCH   1  26
TORSDOF 22
REMARK  Name = ../refined-set-2016/1rp7/1rp7_pocket.pdb
REMARK  268 active torsions:
REMARK  status: ('A' for Active; 'I' for Inactive)
REMARK    1  A    between atoms: _1  and  _3
REMARK    2  A    between atoms: _3  and  _4
REMARK    3  A    between atoms: _7  and  _9
REMARK    4  A    between atoms: _9  and  _10
REMARK    5  A    between atoms: _9  and  _12
REMARK    6  A    between atoms: _12  and  _13
REMARK    7  A    between atoms: _16  and  _18
REMARK    8  A    between atoms: _18  and  _19
REMARK    9  A    between atoms: _18  and  _21
REMARK   10  A    between atoms: _21  and  _22
REMARK   11  A    between atoms: _22  and  _23
REMARK   12  A    between atoms: _26  and  _28
REMARK   13  A    between atoms: _28  and  _29
REMARK   14  A    between atoms: _28  and  _31
REMARK   15  A    between atoms: _31  and  _32
REMARK   16  A    between atoms: _35  and  _37
REMARK   17  A    between atoms: _37  and  _38
REMARK   18  A    between atoms: _40  and  _42
REMARK   19  A    between atoms: _42  and  _43
REMARK   20  A    between atoms: _42  and  _45
REMARK   21  A    between atoms: _45  and  _46
REMARK   22  A    between atoms: _49  and  _51
REMARK   23  A    between atoms: _51  and  _52
REMARK   24  A    between atoms: _51  and  _54
REMARK   25  A    between atoms: _54  and  _55
REMARK   26  A    between atoms: _60  and  _62
REMARK   27  A    between atoms: _62  and  _63
REMARK   28  A    between atoms: _62  and  _65
REMARK   29  A    between atoms: _65  and  _66
REMARK   30  A    between atoms: _66  and  _67
REMARK   31  A    between atoms: _70  and  _72
REMARK   32  A    between atoms: _72  and  _73
REMARK   33  A    between atoms: _72  and  _75
REMARK   34  A    between atoms: _75  and  _76
REMARK   35  A    between atoms: _79  and  _81
REMARK   36  A    between atoms: _81  and  _82
REMARK   37  A    between atoms: _81  and  _84
REMARK   38  A    between atoms: _84  and  _85
REMARK   39  A    between atoms: _90  and  _91
REMARK   40  A    between atoms: _93  and  _95
REMARK   41  A    between atoms: _95  and  _96
REMARK   42  A    between atoms: _95  and  _98
REMARK   43  A    between atoms: _98  and  _99
REMARK   44  A    between atoms: _104  and  _105
REMARK   45  A    between atoms: _107  and  _109
REMARK   46  A    between atoms: _109  and  _110
REMARK   47  A    between atoms: _109  and  _112
REMARK   48  A    between atoms: _112  and  _113
REMARK   49  A    between atoms: _118  and  _119
REMARK   50  A    between atoms: _121  and  _123
REMARK   51  A    between atoms: _123  and  _124
REMARK   52  A    between atoms: _123  and  _126
REMARK   53  A    between atoms: _126  and  _127
REMARK   54  A    between atoms: _127  and  _128
REMARK   55  A    between atoms: _130  and  _132
REMARK   56  A    between atoms: _132  and  _133
REMARK   57  A    between atoms: _132  and  _135
REMARK   58  A    between atoms: _135  and  _136
REMARK   59  A    between atoms: _142  and  _144
REMARK   60  A    between atoms: _144  and  _145
REMARK   61  A    between atoms: _144  and  _147
REMARK   62  A    between atoms: _147  and  _148
REMARK   63  A    between atoms: _148  and  _149
REMARK   64  A    between atoms: _149  and  _150
REMARK   65  A    between atoms: _159  and  _161
REMARK   66  A    between atoms: _161  and  _162
REMARK   67  A    between atoms: _161  and  _164
REMARK   68  A    between atoms: _164  and  _165
REMARK   69  A    between atoms: _165  and  _166
REMARK   70  A    between atoms: _169  and  _171
REMARK   71  A    between atoms: _171  and  _172
REMARK   72  A    between atoms: _171  and  _174
REMARK   73  A    between atoms: _174  and  _175
REMARK   74  A    between atoms: _175  and  _176
REMARK   75  A    between atoms: _181  and  _183
REMARK   76  A    between atoms: _183  and  _184
REMARK   77  A    between atoms: _183  and  _186
REMARK   78  A    between atoms: _186  and  _187
REMARK   79  A    between atoms: _192  and  _194
REMARK   80  A    between atoms: _194  and  _195
REMARK   81  A    between atoms: _194  and  _197
REMARK   82  A    between atoms: _197  and  _198
REMARK   83  A    between atoms: _203  and  _205
REMARK   84  A    between atoms: _205  and  _206
REMARK   85  A    between atoms: _205  and  _208
REMARK   86  A    between atoms: _208  and  _209
REMARK   87  A    between atoms: _209  and  _210
REMARK   88  A    between atoms: _212  and  _214
REMARK   89  A    between atoms: _214  and  _215
REMARK   90  A    between atoms: _218  and  _220
REMARK   91  A    between atoms: _220  and  _221
REMARK   92  A    between atoms: _220  and  _223
REMARK   93  A    between atoms: _223  and  _224
REMARK   94  A    between atoms: _226  and  _228
REMARK   95  A    between atoms: _228  and  _229
REMARK   96  A    between atoms: _228  and  _231
REMARK   97  A    between atoms: _231  and  _232
REMARK   98  A    between atoms: _238  and  _240
REMARK   99  A    between atoms: _240  and  _241
REMARK  100  A    between atoms: _240  and  _243
REMARK  101  A    between atoms: _243  and  _244
REMARK  102  A    between atoms: _244  and  _245
REMARK  103  A    between atoms: _250  and  _252
REMARK  104  A    between atoms: _252  and  _253
REMARK  105  A    between atoms: _252  and  _255
REMARK  106  A    between atoms: _255  and  _256
REMARK  107  A    between atoms: _258  and  _260
REMARK  108  A    between atoms: _260  and  _261
REMARK  109  A    between atoms: _260  and  _263
REMARK  110  A    between atoms: _263  and  _264
REMARK  111  A    between atoms: _266  and  _268
REMARK  112  A    between atoms: _268  and  _269
REMARK  113  A    between atoms: _268  and  _271
REMARK  114  A    between atoms: _271  and  _272
REMARK  115  A    between atoms: _277  and  _278
REMARK  116  A    between atoms: _280  and  _282
REMARK  117  A    between atoms: _282  and  _283
REMARK  118  A    between atoms: _282  and  _285
REMARK  119  A    between atoms: _285  and  _286
REMARK  120  A    between atoms: _286  and  _287
REMARK  121  A    between atoms: _292  and  _294
REMARK  122  A    between atoms: _294  and  _295
REMARK  123  A    between atoms: _297  and  _299
REMARK  124  A    between atoms: _299  and  _300
REMARK  125  A    between atoms: _299  and  _302
REMARK  126  A    between atoms: _302  and  _303
REMARK  127  A    between atoms: _308  and  _310
REMARK  128  A    between atoms: _310  and  _311
REMARK  129  A    between atoms: _310  and  _313
REMARK  130  A    between atoms: _313  and  _314
REMARK  131  A    between atoms: _317  and  _319
REMARK  132  A    between atoms: _319  and  _320
REMARK  133  A    between atoms: _319  and  _322
REMARK  134  A    between atoms: _322  and  _323
REMARK  135  A    between atoms: _323  and  _324
REMARK  136  A    between atoms: _324  and  _325
REMARK  137  A    between atoms: _334  and  _336
REMARK  138  A    between atoms: _336  and  _337
REMARK  139  A    between atoms: _336  and  _339
REMARK  140  A    between atoms: _339  and  _340
REMARK  141  A    between atoms: _345  and  _346
REMARK  142  A    between atoms: _348  and  _350
REMARK  143  A    between atoms: _350  and  _351
REMARK  144  A    between atoms: _350  and  _353
REMARK  145  A    between atoms: _353  and  _354
REMARK  146  A    between atoms: _357  and  _359
REMARK  147  A    between atoms: _359  and  _360
REMARK  148  A    between atoms: _359  and  _362
REMARK  149  A    between atoms: _365  and  _367
REMARK  150  A    between atoms: _367  and  _368
REMARK  151  A    between atoms: _367  and  _370
REMARK  152  A    between atoms: _370  and  _371
REMARK  153  A    between atoms: _373  and  _375
REMARK  154  A    between atoms: _375  and  _376
REMARK  155  A    between atoms: _375  and  _378
REMARK  156  A    between atoms: _378  and  _379
REMARK  157  A    between atoms: _379  and  _380
REMARK  158  A    between atoms: _382  and  _384
REMARK  159  A    between atoms: _384  and  _385
REMARK  160  A    between atoms: _387  and  _389
REMARK  161  A    between atoms: _389  and  _390
REMARK  162  A    between atoms: _389  and  _392
REMARK  163  A    between atoms: _392  and  _393
REMARK  164  A    between atoms: _396  and  _398
REMARK  165  A    between atoms: _398  and  _399
REMARK  166  A    between atoms: _398  and  _401
REMARK  167  A    between atoms: _401  and  _402
REMARK  168  A    between atoms: _408  and  _410
REMARK  169  A    between atoms: _410  and  _411
REMARK  170  A    between atoms: _410  and  _413
REMARK  171  A    between atoms: _413  and  _414
REMARK  172  A    between atoms: _417  and  _419
REMARK  173  A    between atoms: _419  and  _420
REMARK  174  A    between atoms: _422  and  _424
REMARK  175  A    between atoms: _424  and  _425
REMARK  176  A    between atoms: _424  and  _427
REMARK  177  A    between atoms: _427  and  _428
REMARK  178  A    between atoms: _431  and  _433
REMARK  179  A    between atoms: _433  and  _434
REMARK  180  A    between atoms: _436  and  _438
REMARK  181  A    between atoms: _438  and  _439
REMARK  182  A    between atoms: _438  and  _441
REMARK  183  A    between atoms: _441  and  _442
REMARK  184  A    between atoms: _442  and  _443
REMARK  185  A    between atoms: _446  and  _448
REMARK  186  A    between atoms: _448  and  _449
REMARK  187  A    between atoms: _448  and  _451
REMARK  188  A    between atoms: _451  and  _452
REMARK  189  A    between atoms: _452  and  _453
REMARK  190  A    between atoms: _455  and  _457
REMARK  191  A    between atoms: _457  and  _458
REMARK  192  A    between atoms: _457  and  _460
REMARK  193  A    between atoms: _460  and  _461
REMARK  194  A    between atoms: _464  and  _466
REMARK  195  A    between atoms: _466  and  _467
REMARK  196  A    between atoms: _466  and  _469
REMARK  197  A    between atoms: _469  and  _470
REMARK  198  A    between atoms: _470  and  _471
REMARK  199  A    between atoms: _474  and  _476
REMARK  200  A    between atoms: _476  and  _477
REMARK  201  A    between atoms: _476  and  _479
REMARK  202  A    between atoms: _479  and  _480
REMARK  203  A    between atoms: _480  and  _481
REMARK  204  A    between atoms: _484  and  _486
REMARK  205  A    between atoms: _486  and  _487
REMARK  206  A    between atoms: _486  and  _489
REMARK  207  A    between atoms: _489  and  _490
REMARK  208  A    between atoms: _492  and  _494
REMARK  209  A    between atoms: _494  and  _495
REMARK  210  A    between atoms: _494  and  _497
REMARK  211  A    between atoms: _497  and  _498
REMARK  212  A    between atoms: _501  and  _503
REMARK  213  A    between atoms: _503  and  _504
REMARK  214  A    between atoms: _503  and  _506
REMARK  215  A    between atoms: _506  and  _507
REMARK  216  A    between atoms: _512  and  _514
REMARK  217  A    between atoms: _514  and  _515
REMARK  218  A    between atoms: _514  and  _517
REMARK  219  A    between atoms: _519  and  _521
REMARK  220  A    between atoms: _525  and  _527
REMARK  221  A    between atoms: _532  and  _535
REMARK  222  A    between atoms: _535  and  _536
REMARK  223  A    between atoms: _541  and  _544
REMARK  224  A    between atoms: _542  and  _551
REMARK  225  A    between atoms: _544  and  _545
REMARK  226  A    between atoms: _545  and  _546
REMARK  227  A    between atoms: _551  and  _553
REMARK  228  A    between atoms: _553  and  _554
REMARK  229  A    between atoms: _553  and  _556
REMARK  230  A    between atoms: _556  and  _557
REMARK  231  A    between atoms: _557  and  _558
REMARK  232  A    between atoms: _558  and  _559
REMARK  233  A    between atoms: _568  and  _570
REMARK  234  A    between atoms: _570  and  _571
REMARK  235  A    between atoms: _570  and  _573
REMARK  236  A    between atoms: _573  and  _574
REMARK  237  A    between atoms: _577  and  _579
REMARK  238  A    between atoms: _579  and  _580
REMARK  239  A    between atoms: _579  and  _582
REMARK  240  A    between atoms: _582  and  _583
REMARK  241  A    between atoms: _586  and  _588
REMARK  242  A    between atoms: _588  and  _589
REMARK  243  A    between atoms: _592  and  _593
REMARK  244  A    between atoms: _598  and  _600
REMARK  245  A    between atoms: _600  and  _601
REMARK  246  A    between atoms: _600  and  _603
REMARK  247  A    between atoms: _606  and  _608
REMARK  248  A    between atoms: _608  and  _609
REMARK  249  A    between atoms: _608  and  _611
REMARK  250  A    between atoms: _611  and  _612
REMARK  251  A    between atoms: _612  and  _613
REMARK  252  A    between atoms: _618  and  _620
REMARK  253  A    between atoms: _620  and  _621
REMARK  254  A    between atoms: _620  and  _623
REMARK  255  A    between atoms: _623  and  _624
REMARK  256  A    between atoms: _627  and  _629
REMARK  257  A    between atoms: _629  and  _630
REMARK  258  A    between atoms: _629  and  _632
REMARK  259  A    between atoms: _632  and  _633
REMARK  260  A    between atoms: _633  and  _634
REMARK  261  A    between atoms: _634  and  _635
REMARK  262  A    between atoms: _635  and  _636
REMARK  263  A    between atoms: _640  and  _642
REMARK  264  A    between atoms: _642  and  _643
REMARK  265  A    between atoms: _645  and  _647
REMARK  266  A    between atoms: _647  and  _648
REMARK  267  A    between atoms: _647  and  _650
REMARK  268  A    between atoms: _650  and  _651
REMARK                            x       y       z     vdW  Elec       q    Type
REMARK                         _______ _______ _______ _____ _____    ______ ____
ROOT
ATOM      1  C   GLY A   5      19.370 -36.656  12.741  0.00  0.00    +0.243 C 
ATOM      2  N   GLU A   6      20.329 -37.115  13.534  0.00  0.00    -0.297 N 
ATOM      3  H   GLU A   6      20.506 -36.616  14.429  0.00  0.00    +0.150 HD
ATOM      4  O   GLY A   5      19.075 -37.173  11.659  0.00  0.00    -0.273 OA
ENDROOT
BRANCH   1   5
ATOM      5  CA  GLY A   5      18.642 -35.430  13.254  0.00  0.00    +0.176 C 
BRANCH   5   7
ATOM      6  C   ASP A   4      17.630 -36.529  15.146  0.00  0.00    +0.241 C 
ATOM      7  N   GLY A   5      18.392 -35.544  14.679  0.00  0.00    -0.295 N 
ATOM      8  H   GLY A   5      18.809 -34.854  15.336  0.00  0.00    +0.150 HD
ATOM      9  O   ASP A   4      17.107 -37.375  14.419  0.00  0.00    -0.273 OA
BRANCH   6  10
ATOM     10  CA  ASP A   4      17.432 -36.583  16.646  0.00  0.00    +0.160 C 
BRANCH  10  12
ATOM     11  C   GLY A   3      19.688 -36.946  17.378  0.00  0.00    +0.243 C 
ATOM     12  N   ASP A   4      18.641 -36.125  17.320  0.00  0.00    -0.296 N 
ATOM     13  H   ASP A   4      18.685 -35.177  17.746  0.00  0.00    +0.150 HD
ATOM     14  O   GLY A   3      19.653 -38.093  16.914  0.00  0.00    -0.273 OA
BRANCH  11  15
ATOM     15  CA  GLY A   3      20.953 -36.467  18.062  0.00  0.00    +0.176 C 
BRANCH  15  18
ATOM     16  C   LEU A   2      21.790 -38.161  19.579  0.00  0.00    +0.241 C 
ATOM     17  O   LEU A   2      21.280 -37.612  20.558  0.00  0.00    -0.273 OA
ATOM     18  N   GLY A   3      21.707 -37.676  18.345  0.00  0.00    -0.295 N 
ATOM     19  H   GLY A   3      22.190 -38.170  17.568  0.00  0.00    +0.150 HD
BRANCH  16  20
ATOM     20  CA  LEU A   2      22.573 -39.464  19.716  0.00  0.00    +0.149 C 
BRANCH  20  22
ATOM     21  C   PHE A   1      24.142 -39.925  21.541  0.00  0.00    +0.239 C 
ATOM     22  N   LEU A   2      22.893 -39.844  21.087  0.00  0.00    -0.297 N 
ATOM     23  H   LEU A   2      22.112 -40.061  21.738  0.00  0.00    +0.150 HD
ATOM     24  O   PHE A   1      25.141 -39.661  20.861  0.00  0.00    -0.274 OA
BRANCH  21  25
ATOM     25  CA  PHE A   1      24.268 -40.402  22.980  0.00  0.00    +0.149 C 
BRANCH  25  26
ATOM     26  N   PHE A   1      24.832 -41.751  22.955  0.00  0.00    -0.238 NA
ATOM     27  H   PHE A   1      25.864 -41.878  22.967  0.00  0.00    +0.142 HD
ENDBRANCH  25  26
BRANCH  25  28
ATOM     28  CB  PHE A   1      25.153 -39.470  23.809  0.00  0.00    +0.053 C 
BRANCH  28  29
ATOM     29  CG  PHE A   1      24.917 -39.588  25.295  0.00  0.00    -0.020 A 
ATOM     30  CD2 PHE A   1      25.403 -40.678  26.002  0.00  0.00    -0.004 A 
ATOM     31  CE2 PHE A   1      25.162 -40.807  27.372  0.00  0.00    -0.000 A 
ATOM     32  CZ  PHE A   1      24.429 -39.834  28.051  0.00  0.00    -0.000 A 
ATOM     33  CE1 PHE A   1      23.940 -38.739  27.362  0.00  0.00    -0.000 A 
ATOM     34  CD1 PHE A   1      24.185 -38.619  25.982  0.00  0.00    -0.004 A 
ENDBRANCH  28  29
ENDBRANCH  25  28
ENDBRANCH  21  25
ENDBRANCH  20  22
BRANCH  20  35
ATOM     35  CB  LEU A   2      21.769 -40.599  19.059  0.00  0.00    +0.029 C 
BRANCH  35  36
ATOM     36  CG  LEU A   2      22.080 -42.019  19.551  0.00  0.00    +0.002 C 
ATOM     37  CD2 LEU A   2      20.902 -42.939  19.300  0.00  0.00    +0.000 C 
ATOM     38  CD1 LEU A   2      23.323 -42.539  18.839  0.00  0.00    +0.000 C 
ENDBRANCH  35  36
ENDBRANCH  20  35
ENDBRANCH  16  20
ENDBRANCH  15  18
ENDBRANCH  11  15
ENDBRANCH  10  12
BRANCH  10  39
ATOM     39  CB  ASP A   4      16.191 -35.765  17.045  0.00  0.00    +0.143 C 
BRANCH  39  40
ATOM     40  CG  ASP A   4      16.479 -34.293  17.199  0.00  0.00    +0.367 C 
ATOM     41  OD2 ASP A   4      15.558 -33.534  17.562  0.00  0.00    -0.246 OA
ATOM     42  OD1 ASP A   4      17.628 -33.898  16.960  0.00  0.00    -0.246 OA
ENDBRANCH  39  40
ENDBRANCH  10  39
ENDBRANCH   6  10
ENDBRANCH   5   7
ENDBRANCH   1   5
BRANCH   2  43
ATOM     43  CA  GLU A   6      21.151 -38.283  13.220  0.00  0.00    +0.149 C 
BRANCH  43  44
ATOM     44  C   GLU A   6      20.332 -39.556  12.992  0.00  0.00    +0.241 C 
ATOM     45  N   MET A   7      19.181 -39.640  13.646  0.00  0.00    -0.297 N 
ATOM     46  H   MET A   7      18.888 -38.850  14.256  0.00  0.00    +0.150 HD
ATOM     47  O   GLU A   6      20.737 -40.443  12.239  0.00  0.00    -0.273 OA
BRANCH  45  48
ATOM     48  CA  MET A   7      18.315 -40.805  13.536  0.00  0.00    +0.149 C 
BRANCH  48  49
ATOM     49  C   MET A   7      17.760 -41.012  12.135  0.00  0.00    +0.241 C 
ATOM     50  O   MET A   7      17.076 -41.997  11.875  0.00  0.00    -0.273 OA
ATOM     51  N   ASP A   8      18.055 -40.078  11.236  0.00  0.00    -0.297 N 
ATOM     52  H   ASP A   8      18.632 -39.262  11.524  0.00  0.00    +0.150 HD
BRANCH  51  53
ATOM     53  CA  ASP A   8      17.589 -40.169   9.854  0.00  0.00    +0.160 C 
BRANCH  53  54
ATOM     54  C   ASP A   8      18.524 -41.068   9.048  0.00  0.00    +0.241 C 
ATOM     55  N   GLU A   9      19.732 -41.285   9.562  0.00  0.00    -0.298 N 
ATOM     56  H   GLU A   9      19.994 -40.824  10.457  0.00  0.00    +0.150 HD
ATOM     57  O   ASP A   8      18.167 -41.541   7.971  0.00  0.00    -0.273 OA
BRANCH  55  58
ATOM     58  CA  GLU A   9      20.702 -42.159   8.895  0.00  0.00    +0.137 C 
BRANCH  58  59
ATOM     59  C   GLU A   9      20.103 -43.570   8.999  0.00  0.00    +0.227 C 
ATOM     60  O   GLU A   9      19.748 -44.014  10.095  0.00  0.00    -0.286 OA
ENDBRANCH  58  59
BRANCH  58  61
ATOM     61  CB  GLU A   9      22.057 -42.125   9.627  0.00  0.00    +0.039 C 
BRANCH  61  62
ATOM     62  CG  GLU A   9      22.803 -40.786   9.573  0.00  0.00    +0.116 C 
BRANCH  62  63
ATOM     63  CD  GLU A   9      23.381 -40.504   8.201  0.00  0.00    +0.365 C 
ATOM     64  OE2 GLU A   9      24.174 -39.544   8.055  0.00  0.00    -0.246 OA
ATOM     65  OE1 GLU A   9      23.036 -41.241   7.258  0.00  0.00    -0.246 OA
ENDBRANCH  62  63
ENDBRANCH  61  62
ENDBRANCH  58  61
ENDBRANCH  55  58
ENDBRANCH  53  54
BRANCH  53  66
ATOM     66  CB  ASP A   8      17.525 -38.778   9.216  0.00  0.00    +0.143 C 
BRANCH  66  67
ATOM     67  CG  ASP A   8      16.143 -38.144   9.321  0.00  0.00    +0.367 C 
ATOM     68  OD2 ASP A   8      15.516 -38.226  10.403  0.00  0.00    -0.246 OA
ATOM     69  OD1 ASP A   8      15.685 -37.555   8.315  0.00  0.00    -0.246 OA
ENDBRANCH  66  67
ENDBRANCH  53  66
ENDBRANCH  51  53
ENDBRANCH  48  49
BRANCH  48  70
ATOM     70  CB  MET A   7      17.172 -40.694  14.549  0.00  0.00    +0.041 C 
BRANCH  70  71
ATOM     71  CG  MET A   7      17.639 -40.597  16.014  0.00  0.00    +0.060 C 
BRANCH  71  72
ATOM     72  SD  MET A   7      18.976 -41.749  16.509  0.00  0.00    -0.139 S 
ATOM     73  CE  MET A   7      18.066 -43.280  16.515  0.00  0.00    +0.069 C 
ENDBRANCH  71  72
ENDBRANCH  70  71
ENDBRANCH  48  70
ENDBRANCH  45  48
ENDBRANCH  43  44
BRANCH  43  74
ATOM     74  CB  GLU A   6      22.151 -38.521  14.359  0.00  0.00    +0.041 C 
BRANCH  74  75
ATOM     75  CG  GLU A   6      23.047 -39.741  14.178  0.00  0.00    +0.116 C 
BRANCH  75  76
ATOM     76  CD  GLU A   6      23.917 -40.005  15.389  0.00  0.00    +0.365 C 
ATOM     77  OE2 GLU A   6      23.784 -39.271  16.388  0.00  0.00    -0.246 OA
ATOM     78  OE1 GLU A   6      24.735 -40.948  15.347  0.00  0.00    -0.246 OA
ENDBRANCH  75  76
ENDBRANCH  74  75
ENDBRANCH  43  74
ENDBRANCH   2  43
TORSDOF 35
REMARK  Name = ../refined-set-2016/1rp7/1rp7_pocket.pdb
REMARK  268 active torsions:
REMARK  status: ('A' for Active; 'I' for Inactive)
REMARK    1  A    between atoms: _1  and  _3
REMARK    2  A    between atoms: _3  and  _4
REMARK    3  A    between atoms: _7  and  _9
REMARK    4  A    between atoms: _9  and  _10
REMARK    5  A    between atoms: _9  and  _12
REMARK    6  A    between atoms: _12  and  _13
REMARK    7  A    between atoms: _16  and  _18
REMARK    8  A    between atoms: _18  and  _19
REMARK    9  A    between atoms: _18  and  _21
REMARK   10  A    between atoms: _21  and  _22
REMARK   11  A    between atoms: _22  and  _23
REMARK   12  A    between atoms: _26  and  _28
REMARK   13  A    between atoms: _28  and  _29
REMARK   14  A    between atoms: _28  and  _31
REMARK   15  A    between atoms: _31  and  _32
REMARK   16  A    between atoms: _35  and  _37
REMARK   17  A    between atoms: _37  and  _38
REMARK   18  A    between atoms: _40  and  _42
REMARK   19  A    between atoms: _42  and  _43
REMARK   20  A    between atoms: _42  and  _45
REMARK   21  A    between atoms: _45  and  _46
REMARK   22  A    between atoms: _49  and  _51
REMARK   23  A    between atoms: _51  and  _52
REMARK   24  A    between atoms: _51  and  _54
REMARK   25  A    between atoms: _54  and  _55
REMARK   26  A    between atoms: _60  and  _62
REMARK   27  A    between atoms: _62  and  _63
REMARK   28  A    between atoms: _62  and  _65
REMARK   29  A    between atoms: _65  and  _66
REMARK   30  A    between atoms: _66  and  _67
REMARK   31  A    between atoms: _70  and  _72
REMARK   32  A    between atoms: _72  and  _73
REMARK   33  A    between atoms: _72  and  _75
REMARK   34  A    between atoms: _75  and  _76
REMARK   35  A    between atoms: _79  and  _81
REMARK   36  A    between atoms: _81  and  _82
REMARK   37  A    between atoms: _81  and  _84
REMARK   38  A    between atoms: _84  and  _85
REMARK   39  A    between atoms: _90  and  _91
REMARK   40  A    between atoms: _93  and  _95
REMARK   41  A    between atoms: _95  and  _96
REMARK   42  A    between atoms: _95  and  _98
REMARK   43  A    between atoms: _98  and  _99
REMARK   44  A    between atoms: _104  and  _105
REMARK   45  A    between atoms: _107  and  _109
REMARK   46  A    between atoms: _109  and  _110
REMARK   47  A    between atoms: _109  and  _112
REMARK   48  A    between atoms: _112  and  _113
REMARK   49  A    between atoms: _118  and  _119
REMARK   50  A    between atoms: _121  and  _123
REMARK   51  A    between atoms: _123  and  _124
REMARK   52  A    between atoms: _123  and  _126
REMARK   53  A    between atoms: _126  and  _127
REMARK   54  A    between atoms: _127  and  _128
REMARK   55  A    between atoms: _130  and  _132
REMARK   56  A    between atoms: _132  and  _133
REMARK   57  A    between atoms: _132  and  _135
REMARK   58  A    between atoms: _135  and  _136
REMARK   59  A    between atoms: _142  and  _144
REMARK   60  A    between atoms: _144  and  _145
REMARK   61  A    between atoms: _144  and  _147
REMARK   62  A    between atoms: _147  and  _148
REMARK   63  A    between atoms: _148  and  _149
REMARK   64  A    between atoms: _149  and  _150
REMARK   65  A    between atoms: _159  and  _161
REMARK   66  A    between atoms: _161  and  _162
REMARK   67  A    between atoms: _161  and  _164
REMARK   68  A    between atoms: _164  and  _165
REMARK   69  A    between atoms: _165  and  _166
REMARK   70  A    between atoms: _169  and  _171
REMARK   71  A    between atoms: _171  and  _172
REMARK   72  A    between atoms: _171  and  _174
REMARK   73  A    between atoms: _174  and  _175
REMARK   74  A    between atoms: _175  and  _176
REMARK   75  A    between atoms: _181  and  _183
REMARK   76  A    between atoms: _183  and  _184
REMARK   77  A    between atoms: _183  and  _186
REMARK   78  A    between atoms: _186  and  _187
REMARK   79  A    between atoms: _192  and  _194
REMARK   80  A    between atoms: _194  and  _195
REMARK   81  A    between atoms: _194  and  _197
REMARK   82  A    between atoms: _197  and  _198
REMARK   83  A    between atoms: _203  and  _205
REMARK   84  A    between atoms: _205  and  _206
REMARK   85  A    between atoms: _205  and  _208
REMARK   86  A    between atoms: _208  and  _209
REMARK   87  A    between atoms: _209  and  _210
REMARK   88  A    between atoms: _212  and  _214
REMARK   89  A    between atoms: _214  and  _215
REMARK   90  A    between atoms: _218  and  _220
REMARK   91  A    between atoms: _220  and  _221
REMARK   92  A    between atoms: _220  and  _223
REMARK   93  A    between atoms: _223  and  _224
REMARK   94  A    between atoms: _226  and  _228
REMARK   95  A    between atoms: _228  and  _229
REMARK   96  A    between atoms: _228  and  _231
REMARK   97  A    between atoms: _231  and  _232
REMARK   98  A    between atoms: _238  and  _240
REMARK   99  A    between atoms: _240  and  _241
REMARK  100  A    between atoms: _240  and  _243
REMARK  101  A    between atoms: _243  and  _244
REMARK  102  A    between atoms: _244  and  _245
REMARK  103  A    between atoms: _250  and  _252
REMARK  104  A    between atoms: _252  and  _253
REMARK  105  A    between atoms: _252  and  _255
REMARK  106  A    between atoms: _255  and  _256
REMARK  107  A    between atoms: _258  and  _260
REMARK  108  A    between atoms: _260  and  _261
REMARK  109  A    between atoms: _260  and  _263
REMARK  110  A    between atoms: _263  and  _264
REMARK  111  A    between atoms: _266  and  _268
REMARK  112  A    between atoms: _268  and  _269
REMARK  113  A    between atoms: _268  and  _271
REMARK  114  A    between atoms: _271  and  _272
REMARK  115  A    between atoms: _277  and  _278
REMARK  116  A    between atoms: _280  and  _282
REMARK  117  A    between atoms: _282  and  _283
REMARK  118  A    between atoms: _282  and  _285
REMARK  119  A    between atoms: _285  and  _286
REMARK  120  A    between atoms: _286  and  _287
REMARK  121  A    between atoms: _292  and  _294
REMARK  122  A    between atoms: _294  and  _295
REMARK  123  A    between atoms: _297  and  _299
REMARK  124  A    between atoms: _299  and  _300
REMARK  125  A    between atoms: _299  and  _302
REMARK  126  A    between atoms: _302  and  _303
REMARK  127  A    between atoms: _308  and  _310
REMARK  128  A    between atoms: _310  and  _311
REMARK  129  A    between atoms: _310  and  _313
REMARK  130  A    between atoms: _313  and  _314
REMARK  131  A    between atoms: _317  and  _319
REMARK  132  A    between atoms: _319  and  _320
REMARK  133  A    between atoms: _319  and  _322
REMARK  134  A    between atoms: _322  and  _323
REMARK  135  A    between atoms: _323  and  _324
REMARK  136  A    between atoms: _324  and  _325
REMARK  137  A    between atoms: _334  and  _336
REMARK  138  A    between atoms: _336  and  _337
REMARK  139  A    between atoms: _336  and  _339
REMARK  140  A    between atoms: _339  and  _340
REMARK  141  A    between atoms: _345  and  _346
REMARK  142  A    between atoms: _348  and  _350
REMARK  143  A    between atoms: _350  and  _351
REMARK  144  A    between atoms: _350  and  _353
REMARK  145  A    between atoms: _353  and  _354
REMARK  146  A    between atoms: _357  and  _359
REMARK  147  A    between atoms: _359  and  _360
REMARK  148  A    between atoms: _359  and  _362
REMARK  149  A    between atoms: _365  and  _367
REMARK  150  A    between atoms: _367  and  _368
REMARK  151  A    between atoms: _367  and  _370
REMARK  152  A    between atoms: _370  and  _371
REMARK  153  A    between atoms: _373  and  _375
REMARK  154  A    between atoms: _375  and  _376
REMARK  155  A    between atoms: _375  and  _378
REMARK  156  A    between atoms: _378  and  _379
REMARK  157  A    between atoms: _379  and  _380
REMARK  158  A    between atoms: _382  and  _384
REMARK  159  A    between atoms: _384  and  _385
REMARK  160  A    between atoms: _387  and  _389
REMARK  161  A    between atoms: _389  and  _390
REMARK  162  A    between atoms: _389  and  _392
REMARK  163  A    between atoms: _392  and  _393
REMARK  164  A    between atoms: _396  and  _398
REMARK  165  A    between atoms: _398  and  _399
REMARK  166  A    between atoms: _398  and  _401
REMARK  167  A    between atoms: _401  and  _402
REMARK  168  A    between atoms: _408  and  _410
REMARK  169  A    between atoms: _410  and  _411
REMARK  170  A    between atoms: _410  and  _413
REMARK  171  A    between atoms: _413  and  _414
REMARK  172  A    between atoms: _417  and  _419
REMARK  173  A    between atoms: _419  and  _420
REMARK  174  A    between atoms: _422  and  _424
REMARK  175  A    between atoms: _424  and  _425
REMARK  176  A    between atoms: _424  and  _427
REMARK  177  A    between atoms: _427  and  _428
REMARK  178  A    between atoms: _431  and  _433
REMARK  179  A    between atoms: _433  and  _434
REMARK  180  A    between atoms: _436  and  _438
REMARK  181  A    between atoms: _438  and  _439
REMARK  182  A    between atoms: _438  and  _441
REMARK  183  A    between atoms: _441  and  _442
REMARK  184  A    between atoms: _442  and  _443
REMARK  185  A    between atoms: _446  and  _448
REMARK  186  A    between atoms: _448  and  _449
REMARK  187  A    between atoms: _448  and  _451
REMARK  188  A    between atoms: _451  and  _452
REMARK  189  A    between atoms: _452  and  _453
REMARK  190  A    between atoms: _455  and  _457
REMARK  191  A    between atoms: _457  and  _458
REMARK  192  A    between atoms: _457  and  _460
REMARK  193  A    between atoms: _460  and  _461
REMARK  194  A    between atoms: _464  and  _466
REMARK  195  A    between atoms: _466  and  _467
REMARK  196  A    between atoms: _466  and  _469
REMARK  197  A    between atoms: _469  and  _470
REMARK  198  A    between atoms: _470  and  _471
REMARK  199  A    between atoms: _474  and  _476
REMARK  200  A    between atoms: _476  and  _477
REMARK  201  A    between atoms: _476  and  _479
REMARK  202  A    between atoms: _479  and  _480
REMARK  203  A    between atoms: _480  and  _481
REMARK  204  A    between atoms: _484  and  _486
REMARK  205  A    between atoms: _486  and  _487
REMARK  206  A    between atoms: _486  and  _489
REMARK  207  A    between atoms: _489  and  _490
REMARK  208  A    between atoms: _492  and  _494
REMARK  209  A    between atoms: _494  and  _495
REMARK  210  A    between atoms: _494  and  _497
REMARK  211  A    between atoms: _497  and  _498
REMARK  212  A    between atoms: _501  and  _503
REMARK  213  A    between atoms: _503  and  _504
REMARK  214  A    between atoms: _503  and  _506
REMARK  215  A    between atoms: _506  and  _507
REMARK  216  A    between atoms: _512  and  _514
REMARK  217  A    between atoms: _514  and  _515
REMARK  218  A    between atoms: _514  and  _517
REMARK  219  A    between atoms: _519  and  _521
REMARK  220  A    between atoms: _525  and  _527
REMARK  221  A    between atoms: _532  and  _535
REMARK  222  A    between atoms: _535  and  _536
REMARK  223  A    between atoms: _541  and  _544
REMARK  224  A    between atoms: _542  and  _551
REMARK  225  A    between atoms: _544  and  _545
REMARK  226  A    between atoms: _545  and  _546
REMARK  227  A    between atoms: _551  and  _553
REMARK  228  A    between atoms: _553  and  _554
REMARK  229  A    between atoms: _553  and  _556
REMARK  230  A    between atoms: _556  and  _557
REMARK  231  A    between atoms: _557  and  _558
REMARK  232  A    between atoms: _558  and  _559
REMARK  233  A    between atoms: _568  and  _570
REMARK  234  A    between atoms: _570  and  _571
REMARK  235  A    between atoms: _570  and  _573
REMARK  236  A    between atoms: _573  and  _574
REMARK  237  A    between atoms: _577  and  _579
REMARK  238  A    between atoms: _579  and  _580
REMARK  239  A    between atoms: _579  and  _582
REMARK  240  A    between atoms: _582  and  _583
REMARK  241  A    between atoms: _586  and  _588
REMARK  242  A    between atoms: _588  and  _589
REMARK  243  A    between atoms: _592  and  _593
REMARK  244  A    between atoms: _598  and  _600
REMARK  245  A    between atoms: _600  and  _601
REMARK  246  A    between atoms: _600  and  _603
REMARK  247  A    between atoms: _606  and  _608
REMARK  248  A    between atoms: _608  and  _609
REMARK  249  A    between atoms: _608  and  _611
REMARK  250  A    between atoms: _611  and  _612
REMARK  251  A    between atoms: _612  and  _613
REMARK  252  A    between atoms: _618  and  _620
REMARK  253  A    between atoms: _620  and  _621
REMARK  254  A    between atoms: _620  and  _623
REMARK  255  A    between atoms: _623  and  _624
REMARK  256  A    between atoms: _627  and  _629
REMARK  257  A    between atoms: _629  and  _630
REMARK  258  A    between atoms: _629  and  _632
REMARK  259  A    between atoms: _632  and  _633
REMARK  260  A    between atoms: _633  and  _634
REMARK  261  A    between atoms: _634  and  _635
REMARK  262  A    between atoms: _635  and  _636
REMARK  263  A    between atoms: _640  and  _642
REMARK  264  A    between atoms: _642  and  _643
REMARK  265  A    between atoms: _645  and  _647
REMARK  266  A    between atoms: _647  and  _648
REMARK  267  A    between atoms: _647  and  _650
REMARK  268  A    between atoms: _650  and  _651
REMARK                            x       y       z     vdW  Elec       q    Type
REMARK                         _______ _______ _______ _____ _____    ______ ____
ROOT
ATOM      1  C   GLU A   1      21.710 -46.851  11.638  0.00  0.00    +0.238 C 
ATOM      2  O   GLU A   1      21.923 -47.680  12.525  0.00  0.00    -0.274 OA
ATOM      3  N   SER A   2      21.085 -45.705  11.863  0.00  0.00    -0.296 N 
ATOM      4  H   SER A   2      20.917 -45.054  11.070  0.00  0.00    +0.150 HD
ENDROOT
BRANCH   1   5
ATOM      5  CA  GLU A   1      22.156 -47.092  10.201  0.00  0.00    +0.145 C 
BRANCH   5   6
ATOM      6  N   GLU A   1      21.371 -46.322   9.231  0.00  0.00    -0.238 NA
ATOM      7  H   GLU A   1      21.852 -45.589   8.672  0.00  0.00    +0.142 HD
ENDBRANCH   5   6
BRANCH   5   8
ATOM      8  CB  GLU A   1      23.648 -46.741  10.082  0.00  0.00    +0.038 C 
BRANCH   8   9
ATOM      9  CG  GLU A   1      24.254 -47.004   8.712  0.00  0.00    +0.116 C 
BRANCH   9  10
ATOM     10  CD  GLU A   1      24.077 -45.834   7.762  0.00  0.00    +0.365 C 
ATOM     11  OE2 GLU A   1      23.408 -44.857   8.151  0.00  0.00    -0.246 OA
ATOM     12  OE1 GLU A   1      24.598 -45.891   6.625  0.00  0.00    -0.246 OA
ENDBRANCH   9  10
ENDBRANCH   8   9
ENDBRANCH   5   8
ENDBRANCH   1   5
BRANCH   3  13
ATOM     13  CA  SER A   2      20.630 -45.338  13.191  0.00  0.00    +0.166 C 
BRANCH  13  14
ATOM     14  C   SER A   2      19.490 -46.189  13.750  0.00  0.00    +0.229 C 
ATOM     15  O   SER A   2      19.546 -46.626  14.897  0.00  0.00    -0.286 OA
ENDBRANCH  13  14
BRANCH  13  16
ATOM     16  CB  SER A   2      20.246 -43.863  13.188  0.00  0.00    +0.165 C 
BRANCH  16  17
ATOM     17  OG  SER A   2      21.399 -43.064  12.997  0.00  0.00    -0.380 OA
ATOM     18  H   SER A   2      21.140 -42.108  12.996  0.00  0.00    +0.211 HD
ENDBRANCH  16  17
ENDBRANCH  13  16
ENDBRANCH   3  13
TORSDOF 9
REMARK  Name = ../refined-set-2016/1rp7/1rp7_pocket.pdb
REMARK  268 active torsions:
REMARK  status: ('A' for Active; 'I' for Inactive)
REMARK    1  A    between atoms: _1  and  _3
REMARK    2  A    between atoms: _3  and  _4
REMARK    3  A    between atoms: _7  and  _9
REMARK    4  A    between atoms: _9  and  _10
REMARK    5  A    between atoms: _9  and  _12
REMARK    6  A    between atoms: _12  and  _13
REMARK    7  A    between atoms: _16  and  _18
REMARK    8  A    between atoms: _18  and  _19
REMARK    9  A    between atoms: _18  and  _21
REMARK   10  A    between atoms: _21  and  _22
REMARK   11  A    between atoms: _22  and  _23
REMARK   12  A    between atoms: _26  and  _28
REMARK   13  A    between atoms: _28  and  _29
REMARK   14  A    between atoms: _28  and  _31
REMARK   15  A    between atoms: _31  and  _32
REMARK   16  A    between atoms: _35  and  _37
REMARK   17  A    between atoms: _37  and  _38
REMARK   18  A    between atoms: _40  and  _42
REMARK   19  A    between atoms: _42  and  _43
REMARK   20  A    between atoms: _42  and  _45
REMARK   21  A    between atoms: _45  and  _46
REMARK   22  A    between atoms: _49  and  _51
REMARK   23  A    between atoms: _51  and  _52
REMARK   24  A    between atoms: _51  and  _54
REMARK   25  A    between atoms: _54  and  _55
REMARK   26  A    between atoms: _60  and  _62
REMARK   27  A    between atoms: _62  and  _63
REMARK   28  A    between atoms: _62  and  _65
REMARK   29  A    between atoms: _65  and  _66
REMARK   30  A    between atoms: _66  and  _67
REMARK   31  A    between atoms: _70  and  _72
REMARK   32  A    between atoms: _72  and  _73
REMARK   33  A    between atoms: _72  and  _75
REMARK   34  A    between atoms: _75  and  _76
REMARK   35  A    between atoms: _79  and  _81
REMARK   36  A    between atoms: _81  and  _82
REMARK   37  A    between atoms: _81  and  _84
REMARK   38  A    between atoms: _84  and  _85
REMARK   39  A    between atoms: _90  and  _91
REMARK   40  A    between atoms: _93  and  _95
REMARK   41  A    between atoms: _95  and  _96
REMARK   42  A    between atoms: _95  and  _98
REMARK   43  A    between atoms: _98  and  _99
REMARK   44  A    between atoms: _104  and  _105
REMARK   45  A    between atoms: _107  and  _109
REMARK   46  A    between atoms: _109  and  _110
REMARK   47  A    between atoms: _109  and  _112
REMARK   48  A    between atoms: _112  and  _113
REMARK   49  A    between atoms: _118  and  _119
REMARK   50  A    between atoms: _121  and  _123
REMARK   51  A    between atoms: _123  and  _124
REMARK   52  A    between atoms: _123  and  _126
REMARK   53  A    between atoms: _126  and  _127
REMARK   54  A    between atoms: _127  and  _128
REMARK   55  A    between atoms: _130  and  _132
REMARK   56  A    between atoms: _132  and  _133
REMARK   57  A    between atoms: _132  and  _135
REMARK   58  A    between atoms: _135  and  _136
REMARK   59  A    between atoms: _142  and  _144
REMARK   60  A    between atoms: _144  and  _145
REMARK   61  A    between atoms: _144  and  _147
REMARK   62  A    between atoms: _147  and  _148
REMARK   63  A    between atoms: _148  and  _149
REMARK   64  A    between atoms: _149  and  _150
REMARK   65  A    between atoms: _159  and  _161
REMARK   66  A    between atoms: _161  and  _162
REMARK   67  A    between atoms: _161  and  _164
REMARK   68  A    between atoms: _164  and  _165
REMARK   69  A    between atoms: _165  and  _166
REMARK   70  A    between atoms: _169  and  _171
REMARK   71  A    between atoms: _171  and  _172
REMARK   72  A    between atoms: _171  and  _174
REMARK   73  A    between atoms: _174  and  _175
REMARK   74  A    between atoms: _175  and  _176
REMARK   75  A    between atoms: _181  and  _183
REMARK   76  A    between atoms: _183  and  _184
REMARK   77  A    between atoms: _183  and  _186
REMARK   78  A    between atoms: _186  and  _187
REMARK   79  A    between atoms: _192  and  _194
REMARK   80  A    between atoms: _194  and  _195
REMARK   81  A    between atoms: _194  and  _197
REMARK   82  A    between atoms: _197  and  _198
REMARK   83  A    between atoms: _203  and  _205
REMARK   84  A    between atoms: _205  and  _206
REMARK   85  A    between atoms: _205  and  _208
REMARK   86  A    between atoms: _208  and  _209
REMARK   87  A    between atoms: _209  and  _210
REMARK   88  A    between atoms: _212  and  _214
REMARK   89  A    between atoms: _214  and  _215
REMARK   90  A    between atoms: _218  and  _220
REMARK   91  A    between atoms: _220  and  _221
REMARK   92  A    between atoms: _220  and  _223
REMARK   93  A    between atoms: _223  and  _224
REMARK   94  A    between atoms: _226  and  _228
REMARK   95  A    between atoms: _228  and  _229
REMARK   96  A    between atoms: _228  and  _231
REMARK   97  A    between atoms: _231  and  _232
REMARK   98  A    between atoms: _238  and  _240
REMARK   99  A    between atoms: _240  and  _241
REMARK  100  A    between atoms: _240  and  _243
REMARK  101  A    between atoms: _243  and  _244
REMARK  102  A    between atoms: _244  and  _245
REMARK  103  A    between atoms: _250  and  _252
REMARK  104  A    between atoms: _252  and  _253
REMARK  105  A    between atoms: _252  and  _255
REMARK  106  A    between atoms: _255  and  _256
REMARK  107  A    between atoms: _258  and  _260
REMARK  108  A    between atoms: _260  and  _261
REMARK  109  A    between atoms: _260  and  _263
REMARK  110  A    between atoms: _263  and  _264
REMARK  111  A    between atoms: _266  and  _268
REMARK  112  A    between atoms: _268  and  _269
REMARK  113  A    between atoms: _268  and  _271
REMARK  114  A    between atoms: _271  and  _272
REMARK  115  A    between atoms: _277  and  _278
REMARK  116  A    between atoms: _280  and  _282
REMARK  117  A    between atoms: _282  and  _283
REMARK  118  A    between atoms: _282  and  _285
REMARK  119  A    between atoms: _285  and  _286
REMARK  120  A    between atoms: _286  and  _287
REMARK  121  A    between atoms: _292  and  _294
REMARK  122  A    between atoms: _294  and  _295
REMARK  123  A    between atoms: _297  and  _299
REMARK  124  A    between atoms: _299  and  _300
REMARK  125  A    between atoms: _299  and  _302
REMARK  126  A    between atoms: _302  and  _303
REMARK  127  A    between atoms: _308  and  _310
REMARK  128  A    between atoms: _310  and  _311
REMARK  129  A    between atoms: _310  and  _313
REMARK  130  A    between atoms: _313  and  _314
REMARK  131  A    between atoms: _317  and  _319
REMARK  132  A    between atoms: _319  and  _320
REMARK  133  A    between atoms: _319  and  _322
REMARK  134  A    between atoms: _322  and  _323
REMARK  135  A    between atoms: _323  and  _324
REMARK  136  A    between atoms: _324  and  _325
REMARK  137  A    between atoms: _334  and  _336
REMARK  138  A    between atoms: _336  and  _337
REMARK  139  A    between atoms: _336  and  _339
REMARK  140  A    between atoms: _339  and  _340
REMARK  141  A    between atoms: _345  and  _346
REMARK  142  A    between atoms: _348  and  _350
REMARK  143  A    between atoms: _350  and  _351
REMARK  144  A    between atoms: _350  and  _353
REMARK  145  A    between atoms: _353  and  _354
REMARK  146  A    between atoms: _357  and  _359
REMARK  147  A    between atoms: _359  and  _360
REMARK  148  A    between atoms: _359  and  _362
REMARK  149  A    between atoms: _365  and  _367
REMARK  150  A    between atoms: _367  and  _368
REMARK  151  A    between atoms: _367  and  _370
REMARK  152  A    between atoms: _370  and  _371
REMARK  153  A    between atoms: _373  and  _375
REMARK  154  A    between atoms: _375  and  _376
REMARK  155  A    between atoms: _375  and  _378
REMARK  156  A    between atoms: _378  and  _379
REMARK  157  A    between atoms: _379  and  _380
REMARK  158  A    between atoms: _382  and  _384
REMARK  159  A    between atoms: _384  and  _385
REMARK  160  A    between atoms: _387  and  _389
REMARK  161  A    between atoms: _389  and  _390
REMARK  162  A    between atoms: _389  and  _392
REMARK  163  A    between atoms: _392  and  _393
REMARK  164  A    between atoms: _396  and  _398
REMARK  165  A    between atoms: _398  and  _399
REMARK  166  A    between atoms: _398  and  _401
REMARK  167  A    between atoms: _401  and  _402
REMARK  168  A    between atoms: _408  and  _410
REMARK  169  A    between atoms: _410  and  _411
REMARK  170  A    between atoms: _410  and  _413
REMARK  171  A    between atoms: _413  and  _414
REMARK  172  A    between atoms: _417  and  _419
REMARK  173  A    between atoms: _419  and  _420
REMARK  174  A    between atoms: _422  and  _424
REMARK  175  A    between atoms: _424  and  _425
REMARK  176  A    between atoms: _424  and  _427
REMARK  177  A    between atoms: _427  and  _428
REMARK  178  A    between atoms: _431  and  _433
REMARK  179  A    between atoms: _433  and  _434
REMARK  180  A    between atoms: _436  and  _438
REMARK  181  A    between atoms: _438  and  _439
REMARK  182  A    between atoms: _438  and  _441
REMARK  183  A    between atoms: _441  and  _442
REMARK  184  A    between atoms: _442  and  _443
REMARK  185  A    between atoms: _446  and  _448
REMARK  186  A    between atoms: _448  and  _449
REMARK  187  A    between atoms: _448  and  _451
REMARK  188  A    between atoms: _451  and  _452
REMARK  189  A    between atoms: _452  and  _453
REMARK  190  A    between atoms: _455  and  _457
REMARK  191  A    between atoms: _457  and  _458
REMARK  192  A    between atoms: _457  and  _460
REMARK  193  A    between atoms: _460  and  _461
REMARK  194  A    between atoms: _464  and  _466
REMARK  195  A    between atoms: _466  and  _467
REMARK  196  A    between atoms: _466  and  _469
REMARK  197  A    between atoms: _469  and  _470
REMARK  198  A    between atoms: _470  and  _471
REMARK  199  A    between atoms: _474  and  _476
REMARK  200  A    between atoms: _476  and  _477
REMARK  201  A    between atoms: _476  and  _479
REMARK  202  A    between atoms: _479  and  _480
REMARK  203  A    between atoms: _480  and  _481
REMARK  204  A    between atoms: _484  and  _486
REMARK  205  A    between atoms: _486  and  _487
REMARK  206  A    between atoms: _486  and  _489
REMARK  207  A    between atoms: _489  and  _490
REMARK  208  A    between atoms: _492  and  _494
REMARK  209  A    between atoms: _494  and  _495
REMARK  210  A    between atoms: _494  and  _497
REMARK  211  A    between atoms: _497  and  _498
REMARK  212  A    between atoms: _501  and  _503
REMARK  213  A    between atoms: _503  and  _504
REMARK  214  A    between atoms: _503  and  _506
REMARK  215  A    between atoms: _506  and  _507
REMARK  216  A    between atoms: _512  and  _514
REMARK  217  A    between atoms: _514  and  _515
REMARK  218  A    between atoms: _514  and  _517
REMARK  219  A    between atoms: _519  and  _521
REMARK  220  A    between atoms: _525  and  _527
REMARK  221  A    between atoms: _532  and  _535
REMARK  222  A    between atoms: _535  and  _536
REMARK  223  A    between atoms: _541  and  _544
REMARK  224  A    between atoms: _542  and  _551
REMARK  225  A    between atoms: _544  and  _545
REMARK  226  A    between atoms: _545  and  _546
REMARK  227  A    between atoms: _551  and  _553
REMARK  228  A    between atoms: _553  and  _554
REMARK  229  A    between atoms: _553  and  _556
REMARK  230  A    between atoms: _556  and  _557
REMARK  231  A    between atoms: _557  and  _558
REMARK  232  A    between atoms: _558  and  _559
REMARK  233  A    between atoms: _568  and  _570
REMARK  234  A    between atoms: _570  and  _571
REMARK  235  A    between atoms: _570  and  _573
REMARK  236  A    between atoms: _573  and  _574
REMARK  237  A    between atoms: _577  and  _579
REMARK  238  A    between atoms: _579  and  _580
REMARK  239  A    between atoms: _579  and  _582
REMARK  240  A    between atoms: _582  and  _583
REMARK  241  A    between atoms: _586  and  _588
REMARK  242  A    between atoms: _588  and  _589
REMARK  243  A    between atoms: _592  and  _593
REMARK  244  A    between atoms: _598  and  _600
REMARK  245  A    between atoms: _600  and  _601
REMARK  246  A    between atoms: _600  and  _603
REMARK  247  A    between atoms: _606  and  _608
REMARK  248  A    between atoms: _608  and  _609
REMARK  249  A    between atoms: _608  and  _611
REMARK  250  A    between atoms: _611  and  _612
REMARK  251  A    between atoms: _612  and  _613
REMARK  252  A    between atoms: _618  and  _620
REMARK  253  A    between atoms: _620  and  _621
REMARK  254  A    between atoms: _620  and  _623
REMARK  255  A    between atoms: _623  and  _624
REMARK  256  A    between atoms: _627  and  _629
REMARK  257  A    between atoms: _629  and  _630
REMARK  258  A    between atoms: _629  and  _632
REMARK  259  A    between atoms: _632  and  _633
REMARK  260  A    between atoms: _633  and  _634
REMARK  261  A    between atoms: _634  and  _635
REMARK  262  A    between atoms: _635  and  _636
REMARK  263  A    between atoms: _640  and  _642
REMARK  264  A    between atoms: _642  and  _643
REMARK  265  A    between atoms: _645  and  _647
REMARK  266  A    between atoms: _647  and  _648
REMARK  267  A    between atoms: _647  and  _650
REMARK  268  A    between atoms: _650  and  _651
REMARK                            x       y       z     vdW  Elec       q    Type
REMARK                         _______ _______ _______ _____ _____    ______ ____
ROOT
ATOM      1  C   UNK A   0      16.011 -30.436  20.560  0.00  0.00    +0.000 C 
ATOM      2  C   UNK A   0      17.400 -29.779  20.617  0.00  0.00    +0.000 C 
ATOM      3  C   UNK A   0      18.379 -30.393  19.655  0.00  0.00    +0.000 C 
ATOM      4  O   UNK A   0      17.988 -30.857  18.593  0.00  0.00    +0.000 OA
ATOM      5 MG   UNK A   0      18.791 -32.063  16.992  0.00  0.00    +0.000 Mg
ATOM      6  O   UNK A   0      18.619 -30.670  15.399  0.00  0.00    +0.000 OA
ATOM      7  C   UNK A   0      17.849 -30.237  14.563  0.00  0.00    +0.000 C 
ATOM      8  C   UNK A   0      16.531 -29.613  14.959  0.00  0.00    +0.000 C 
ATOM      9  N   UNK A   0      15.892 -30.144  16.150  0.00  0.00    +0.000 N 
ATOM     10  H   UNK A   0      16.451 -30.397  16.989  0.00  0.00    +0.000 HD
ATOM     11  C   UNK A   0      14.575 -30.297  16.137  0.00  0.00    +0.000 C 
ATOM     12  C   UNK A   0      13.911 -30.832  17.392  0.00  0.00    +0.000 C 
ATOM     13  N   UNK A   0      14.734 -30.993  18.590  0.00  0.00    +0.000 N 
ATOM     14  H   UNK A   0      14.950 -31.963  18.896  0.00  0.00    +0.000 HD
ATOM     15  O   UNK A   0      13.895 -30.032  15.139  0.00  0.00    +0.000 OA
ATOM     16  C   UNK A   0      15.230 -29.993  19.322  0.00  0.00    +0.000 C 
ATOM     17  O   UNK A   0      15.079 -28.802  19.053  0.00  0.00    +0.000 OA
ENDROOT
BRANCH   1  20
ATOM     18  C   UNK A   0      15.227 -32.670  21.134  0.00  0.00    +0.000 C 
ATOM     19  O   UNK A   0      14.274 -32.230  21.786  0.00  0.00    +0.000 OA
ATOM     20  N   UNK A   0      16.121 -31.887  20.530  0.00  0.00    +0.000 N 
ATOM     21  H   UNK A   0      16.918 -32.324  20.024  0.00  0.00    +0.000 HD
BRANCH  18  22
ATOM     22  C   UNK A   0      15.451 -34.178  20.984  0.00  0.00    +0.000 C 
BRANCH  22  24
ATOM     23  C   UNK A   0      17.750 -34.901  21.251  0.00  0.00    +0.000 C 
ATOM     24  N   UNK A   0      16.553 -34.690  21.783  0.00  0.00    +0.000 N 
ATOM     25  H   UNK A   0      16.400 -34.895  22.791  0.00  0.00    +0.000 HD
ATOM     26  O   UNK A   0      18.016 -34.659  20.077  0.00  0.00    +0.000 OA
BRANCH  23  27
ATOM     27  C   UNK A   0      18.799 -35.478  22.179  0.00  0.00    +0.000 C 
BRANCH  27  30
ATOM     28  C   UNK A   0      18.207 -37.805  22.291  0.00  0.00    +0.000 C 
ATOM     29  O   UNK A   0      17.290 -37.562  23.072  0.00  0.00    +0.000 OA
ATOM     30  N   UNK A   0      19.009 -36.864  21.813  0.00  0.00    +0.000 N 
ATOM     31  H   UNK A   0      19.789 -37.121  21.175  0.00  0.00    +0.000 HD
BRANCH  28  32
ATOM     32  C   UNK A   0      18.501 -39.226  21.847  0.00  0.00    +0.000 C 
BRANCH  32  33
ATOM     33  N   UNK A   0      18.655 -40.100  23.001  0.00  0.00    +0.000 NA
ATOM     34  H   UNK A   0      17.811 -40.551  23.409  0.00  0.00    +0.000 HD
ENDBRANCH  32  33
BRANCH  32  35
ATOM     35  C   UNK A   0      17.360 -39.734  20.934  0.00  0.00    +0.000 C 
ATOM     36  C   UNK A   0      17.289 -38.901  19.668  0.00  0.00    +0.000 C 
BRANCH  35  37
ATOM     37  C   UNK A   0      17.581 -41.219  20.616  0.00  0.00    +0.000 C 
ATOM     38  C   UNK A   0      16.567 -41.807  19.645  0.00  0.00    +0.000 C 
ENDBRANCH  35  37
ENDBRANCH  32  35
ENDBRANCH  28  32
ENDBRANCH  27  30
BRANCH  27  39
ATOM     39  C   UNK A   0      20.088 -34.680  22.066  0.00  0.00    +0.000 C 
BRANCH  39  40
ATOM     40  C   UNK A   0      19.921 -33.288  22.592  0.00  0.00    +0.000 C 
ATOM     41  O   UNK A   0      18.841 -32.932  23.050  0.00  0.00    +0.000 OA
ATOM     42  N   UNK A   0      20.975 -32.488  22.535  0.00  0.00    +0.000 N 
ATOM     43  H   UNK A   0      20.907 -31.512  22.888  0.00  0.00    +0.000 HD
ATOM     44  H   UNK A   0      21.871 -32.836  22.137  0.00  0.00    +0.000 HD
ENDBRANCH  39  40
ENDBRANCH  27  39
ENDBRANCH  23  27
ENDBRANCH  22  24
BRANCH  22  45
ATOM     45  C   UNK A   0      14.171 -34.952  21.323  0.00  0.00    +0.000 C 
ATOM     46  S   UNK A   0      14.246 -36.746  20.938  0.00  0.00    +0.000 S 
ENDBRANCH  22  45
ENDBRANCH  18  22
ENDBRANCH   1  20
BRANCH   3  47
ATOM     47  N   UNK A   0      19.663 -30.393  20.016  0.00  0.00    +0.000 NA
ATOM     48  H   UNK A   0      19.946 -29.986  20.930  0.00  0.00    +0.000 HD
ATOM     49  H   UNK A   0      20.381 -30.800  19.383  0.00  0.00    +0.000 HD
ENDBRANCH   3  47
BRANCH   7  50
ATOM     50  N   ARG A   1      18.092 -30.274  13.260  0.00  0.00    +0.000 NA
ATOM     51  H   ARG A   1      17.372 -29.908  12.604  0.00  0.00    +0.000 HD
BRANCH  50  52
ATOM     52  CA  ARG A   1      19.329 -30.808  12.717  0.00  0.00    +0.000 C 
BRANCH  52  53
ATOM     53  C   ARG A   1      20.311 -29.633  12.692  0.00  0.00    +0.000 C 
ATOM     54  O   ARG A   1      20.381 -28.855  13.635  0.00  0.00    +0.000 OA
ATOM     55  N   LEU A   2      21.056 -29.501  11.603  0.00  0.00    +0.000 N 
ATOM     56  H   LEU A   2      20.950 -30.184  10.826  0.00  0.00    +0.000 HD
BRANCH  55  57
ATOM     57  CA  LEU A   2      22.017 -28.420  11.475  0.00  0.00    +0.000 C 
BRANCH  57  58
ATOM     58  C   LEU A   2      21.362 -27.247  10.754  0.00  0.00    +0.000 C 
ATOM     59  O   LEU A   2      21.382 -26.118  11.239  0.00  0.00    +0.000 OA
ATOM     60  N   ASP A   3      20.760 -27.533   9.604  0.00  0.00    +0.000 N 
ATOM     61  H   ASP A   3      20.741 -28.519   9.275  0.00  0.00    +0.000 HD
BRANCH  60  62
ATOM     62  CA  ASP A   3      20.125 -26.501   8.790  0.00  0.00    +0.000 C 
BRANCH  62  63
ATOM     63  C   ASP A   3      18.618 -26.378   8.958  0.00  0.00    +0.000 C 
ATOM     64  N   GLY A   4      18.093 -26.789  10.105  0.00  0.00    +0.000 N 
ATOM     65  H   GLY A   4      18.704 -27.180  10.850  0.00  0.00    +0.000 HD
ATOM     66  O   ASP A   3      17.940 -25.911   8.054  0.00  0.00    +0.000 OA
BRANCH  64  67
ATOM     67  CA  GLY A   4      16.661 -26.689  10.313  0.00  0.00    +0.000 C 
BRANCH  67  68
ATOM     68  C   GLY A   4      16.106 -27.750  11.239  0.00  0.00    +0.000 C 
ATOM     69  O   GLY A   4      16.863 -28.540  11.796  0.00  0.00    +0.000 OA
ATOM     70  N   PRO A   5      14.777 -27.796  11.420  0.00  0.00    +0.000 N 
ATOM     71  CA  PRO A   5      14.157 -28.791  12.300  0.00  0.00    +0.000 C 
ATOM     72  CB  PRO A   5      12.725 -28.289  12.459  0.00  0.00    +0.000 C 
ATOM     73  CG  PRO A   5      12.459 -27.545  11.200  0.00  0.00    +0.000 C 
ATOM     74  CD  PRO A   5      13.775 -26.927  10.779  0.00  0.00    +0.000 C 
BRANCH  71  75
ATOM     75  C   PRO A   5      14.209 -30.132  11.613  0.00  0.00    +0.000 C 
ATOM     76  N   VAL A   6      14.189 -31.205  12.386  0.00  0.00    +0.000 N 
ATOM     77  H   VAL A   6      14.140 -31.103  13.420  0.00  0.00    +0.000 HD
ATOM     78  O   PRO A   5      14.278 -30.196  10.393  0.00  0.00    +0.000 OA
BRANCH  76  79
ATOM     79  CA  VAL A   6      14.236 -32.522  11.786  0.00  0.00    +0.000 C 
BRANCH  79  80
ATOM     80  CB  VAL A   6      14.381 -33.620  12.865  0.00  0.00    +0.000 C 
ATOM     81  CG2 VAL A   6      15.617 -33.354  13.698  0.00  0.00    +0.000 C 
ATOM     82  CG1 VAL A   6      14.476 -34.995  12.213  0.00  0.00    +0.000 C 
ENDBRANCH  79  80
BRANCH  79  83
ATOM     83  C   VAL A   6      12.959 -32.730  10.970  0.00  0.00    +0.000 C 
ATOM     84  O   VAL A   6      13.017 -33.164   9.818  0.00  0.00    +0.000 OA
ENDBRANCH  79  83
ENDBRANCH  76  79
ENDBRANCH  71  75
ENDBRANCH  67  68
ENDBRANCH  64  67
ENDBRANCH  62  63
BRANCH  62  85
ATOM     85  CB  ASP A   3      20.438 -26.748   7.311  0.00  0.00    +0.000 C 
BRANCH  85  86
ATOM     86  CG  ASP A   3      21.317 -25.665   6.711  0.00  0.00    +0.000 C 
ATOM     87  OD2 ASP A   3      22.560 -25.833   6.708  0.00  0.00    +0.000 OA
ATOM     88  OD1 ASP A   3      20.761 -24.642   6.242  0.00  0.00    +0.000 OA
ENDBRANCH  85  86
ENDBRANCH  62  85
ENDBRANCH  60  62
ENDBRANCH  57  58
BRANCH  57  89
ATOM     89  CB  LEU A   2      23.244 -28.901  10.689  0.00  0.00    +0.000 C 
BRANCH  89  90
ATOM     90  CG  LEU A   2      24.570 -28.171  10.903  0.00  0.00    +0.000 C 
ATOM     91  CD2 LEU A   2      24.952 -28.151  12.382  0.00  0.00    +0.000 C 
ATOM     92  CD1 LEU A   2      24.438 -26.755  10.366  0.00  0.00    +0.000 C 
ENDBRANCH  89  90
ENDBRANCH  57  89
ENDBRANCH  55  57
ENDBRANCH  52  53
BRANCH  52  93
ATOM     93  CB  ARG A   1      19.115 -31.325  11.290  0.00  0.00    +0.000 C 
BRANCH  93  94
ATOM     94  CG  ARG A   1      18.062 -32.393  11.132  0.00  0.00    +0.000 C 
BRANCH  94  95
ATOM     95  CD  ARG A   1      17.563 -32.398   9.706  0.00  0.00    +0.000 C 
BRANCH  95  96
ATOM     96  NE  ARG A   1      17.883 -31.128   9.077  0.00  0.00    +0.330 N 
ATOM     97  HE  ARG A   1      18.759 -30.651   9.372  0.00  0.00    +0.000 HD
ATOM     98  CZ  ARG A   1      17.140 -30.532   8.154  0.00  0.00    +0.000 C 
ATOM     99  NH2 ARG A   1      16.011 -31.094   7.735  0.00  0.00    +0.330 N 
ATOM    100 HH21 ARG A   1      15.706 -32.006   8.131  0.00  0.00    +0.000 HD
ATOM    101 HH22 ARG A   1      15.433 -30.622   7.011  0.00  0.00    +0.000 HD
ATOM    102  NH1 ARG A   1      17.526 -29.362   7.665  0.00  0.00    +0.330 N 
ATOM    103 HH11 ARG A   1      18.404 -28.920   8.005  0.00  0.00    +0.000 HD
ATOM    104 HH12 ARG A   1      16.951 -28.886   6.941  0.00  0.00    +0.000 HD
ENDBRANCH  95  96
ENDBRANCH  94  95
ENDBRANCH  93  94
ENDBRANCH  52  93
ENDBRANCH  50  52
ENDBRANCH   7  50
BRANCH   8 105
ATOM    105  C   UNK A   0      16.721 -28.101  15.092  0.00  0.00    +0.000 C 
BRANCH 105 106
ATOM    106  C   UNK A   0      17.051 -27.628  16.485  0.00  0.00    +0.000 C 
BRANCH 106 107
ATOM    107  C   UNK A   0      17.208 -26.123  16.547  0.00  0.00    +0.000 C 
ATOM    108  O   UNK A   0      16.888 -25.486  17.557  0.00  0.00    +0.000 OA
ATOM    109  N   UNK A   0      17.703 -25.543  15.459  0.00  0.00    +0.000 N 
ATOM    110  H   UNK A   0      17.835 -24.512  15.434  0.00  0.00    +0.000 HD
ATOM    111  H   UNK A   0      17.958 -26.120  14.632  0.00  0.00    +0.000 HD
ENDBRANCH 106 107
ENDBRANCH 105 106
ENDBRANCH   8 105
BRANCH  12 112
ATOM    112  C   UNK A   0      12.679 -29.967  17.713  0.00  0.00    +0.000 C 
BRANCH 112 113
ATOM    113  C   UNK A   0      11.924 -30.212  19.033  0.00  0.00    +0.000 C 
ATOM    114  C   UNK A   0      11.509 -31.670  19.137  0.00  0.00    +0.000 C 
ATOM    115  C   UNK A   0      10.701 -29.301  19.103  0.00  0.00    +0.000 C 
ENDBRANCH 112 113
ENDBRANCH  12 112
TORSDOF 39
REMARK  Name = ../refined-set-2016/1rp7/1rp7_pocket.pdb
REMARK  268 active torsions:
REMARK  status: ('A' for Active; 'I' for Inactive)
REMARK    1  A    between atoms: _1  and  _3
REMARK    2  A    between atoms: _3  and  _4
REMARK    3  A    between atoms: _7  and  _9
REMARK    4  A    between atoms: _9  and  _10
REMARK    5  A    between atoms: _9  and  _12
REMARK    6  A    between atoms: _12  and  _13
REMARK    7  A    between atoms: _16  and  _18
REMARK    8  A    between atoms: _18  and  _19
REMARK    9  A    between atoms: _18  and  _21
REMARK   10  A    between atoms: _21  and  _22
REMARK   11  A    between atoms: _22  and  _23
REMARK   12  A    between atoms: _26  and  _28
REMARK   13  A    between atoms: _28  and  _29
REMARK   14  A    between atoms: _28  and  _31
REMARK   15  A    between atoms: _31  and  _32
REMARK   16  A    between atoms: _35  and  _37
REMARK   17  A    between atoms: _37  and  _38
REMARK   18  A    between atoms: _40  and  _42
REMARK   19  A    between atoms: _42  and  _43
REMARK   20  A    between atoms: _42  and  _45
REMARK   21  A    between atoms: _45  and  _46
REMARK   22  A    between atoms: _49  and  _51
REMARK   23  A    between atoms: _51  and  _52
REMARK   24  A    between atoms: _51  and  _54
REMARK   25  A    between atoms: _54  and  _55
REMARK   26  A    between atoms: _60  and  _62
REMARK   27  A    between atoms: _62  and  _63
REMARK   28  A    between atoms: _62  and  _65
REMARK   29  A    between atoms: _65  and  _66
REMARK   30  A    between atoms: _66  and  _67
REMARK   31  A    between atoms: _70  and  _72
REMARK   32  A    between atoms: _72  and  _73
REMARK   33  A    between atoms: _72  and  _75
REMARK   34  A    between atoms: _75  and  _76
REMARK   35  A    between atoms: _79  and  _81
REMARK   36  A    between atoms: _81  and  _82
REMARK   37  A    between atoms: _81  and  _84
REMARK   38  A    between atoms: _84  and  _85
REMARK   39  A    between atoms: _90  and  _91
REMARK   40  A    between atoms: _93  and  _95
REMARK   41  A    between atoms: _95  and  _96
REMARK   42  A    between atoms: _95  and  _98
REMARK   43  A    between atoms: _98  and  _99
REMARK   44  A    between atoms: _104  and  _105
REMARK   45  A    between atoms: _107  and  _109
REMARK   46  A    between atoms: _109  and  _110
REMARK   47  A    between atoms: _109  and  _112
REMARK   48  A    between atoms: _112  and  _113
REMARK   49  A    between atoms: _118  and  _119
REMARK   50  A    between atoms: _121  and  _123
REMARK   51  A    between atoms: _123  and  _124
REMARK   52  A    between atoms: _123  and  _126
REMARK   53  A    between atoms: _126  and  _127
REMARK   54  A    between atoms: _127  and  _128
REMARK   55  A    between atoms: _130  and  _132
REMARK   56  A    between atoms: _132  and  _133
REMARK   57  A    between atoms: _132  and  _135
REMARK   58  A    between atoms: _135  and  _136
REMARK   59  A    between atoms: _142  and  _144
REMARK   60  A    between atoms: _144  and  _145
REMARK   61  A    between atoms: _144  and  _147
REMARK   62  A    between atoms: _147  and  _148
REMARK   63  A    between atoms: _148  and  _149
REMARK   64  A    between atoms: _149  and  _150
REMARK   65  A    between atoms: _159  and  _161
REMARK   66  A    between atoms: _161  and  _162
REMARK   67  A    between atoms: _161  and  _164
REMARK   68  A    between atoms: _164  and  _165
REMARK   69  A    between atoms: _165  and  _166
REMARK   70  A    between atoms: _169  and  _171
REMARK   71  A    between atoms: _171  and  _172
REMARK   72  A    between atoms: _171  and  _174
REMARK   73  A    between atoms: _174  and  _175
REMARK   74  A    between atoms: _175  and  _176
REMARK   75  A    between atoms: _181  and  _183
REMARK   76  A    between atoms: _183  and  _184
REMARK   77  A    between atoms: _183  and  _186
REMARK   78  A    between atoms: _186  and  _187
REMARK   79  A    between atoms: _192  and  _194
REMARK   80  A    between atoms: _194  and  _195
REMARK   81  A    between atoms: _194  and  _197
REMARK   82  A    between atoms: _197  and  _198
REMARK   83  A    between atoms: _203  and  _205
REMARK   84  A    between atoms: _205  and  _206
REMARK   85  A    between atoms: _205  and  _208
REMARK   86  A    between atoms: _208  and  _209
REMARK   87  A    between atoms: _209  and  _210
REMARK   88  A    between atoms: _212  and  _214
REMARK   89  A    between atoms: _214  and  _215
REMARK   90  A    between atoms: _218  and  _220
REMARK   91  A    between atoms: _220  and  _221
REMARK   92  A    between atoms: _220  and  _223
REMARK   93  A    between atoms: _223  and  _224
REMARK   94  A    between atoms: _226  and  _228
REMARK   95  A    between atoms: _228  and  _229
REMARK   96  A    between atoms: _228  and  _231
REMARK   97  A    between atoms: _231  and  _232
REMARK   98  A    between atoms: _238  and  _240
REMARK   99  A    between atoms: _240  and  _241
REMARK  100  A    between atoms: _240  and  _243
REMARK  101  A    between atoms: _243  and  _244
REMARK  102  A    between atoms: _244  and  _245
REMARK  103  A    between atoms: _250  and  _252
REMARK  104  A    between atoms: _252  and  _253
REMARK  105  A    between atoms: _252  and  _255
REMARK  106  A    between atoms: _255  and  _256
REMARK  107  A    between atoms: _258  and  _260
REMARK  108  A    between atoms: _260  and  _261
REMARK  109  A    between atoms: _260  and  _263
REMARK  110  A    between atoms: _263  and  _264
REMARK  111  A    between atoms: _266  and  _268
REMARK  112  A    between atoms: _268  and  _269
REMARK  113  A    between atoms: _268  and  _271
REMARK  114  A    between atoms: _271  and  _272
REMARK  115  A    between atoms: _277  and  _278
REMARK  116  A    between atoms: _280  and  _282
REMARK  117  A    between atoms: _282  and  _283
REMARK  118  A    between atoms: _282  and  _285
REMARK  119  A    between atoms: _285  and  _286
REMARK  120  A    between atoms: _286  and  _287
REMARK  121  A    between atoms: _292  and  _294
REMARK  122  A    between atoms: _294  and  _295
REMARK  123  A    between atoms: _297  and  _299
REMARK  124  A    between atoms: _299  and  _300
REMARK  125  A    between atoms: _299  and  _302
REMARK  126  A    between atoms: _302  and  _303
REMARK  127  A    between atoms: _308  and  _310
REMARK  128  A    between atoms: _310  and  _311
REMARK  129  A    between atoms: _310  and  _313
REMARK  130  A    between atoms: _313  and  _314
REMARK  131  A    between atoms: _317  and  _319
REMARK  132  A    between atoms: _319  and  _320
REMARK  133  A    between atoms: _319  and  _322
REMARK  134  A    between atoms: _322  and  _323
REMARK  135  A    between atoms: _323  and  _324
REMARK  136  A    between atoms: _324  and  _325
REMARK  137  A    between atoms: _334  and  _336
REMARK  138  A    between atoms: _336  and  _337
REMARK  139  A    between atoms: _336  and  _339
REMARK  140  A    between atoms: _339  and  _340
REMARK  141  A    between atoms: _345  and  _346
REMARK  142  A    between atoms: _348  and  _350
REMARK  143  A    between atoms: _350  and  _351
REMARK  144  A    between atoms: _350  and  _353
REMARK  145  A    between atoms: _353  and  _354
REMARK  146  A    between atoms: _357  and  _359
REMARK  147  A    between atoms: _359  and  _360
REMARK  148  A    between atoms: _359  and  _362
REMARK  149  A    between atoms: _365  and  _367
REMARK  150  A    between atoms: _367  and  _368
REMARK  151  A    between atoms: _367  and  _370
REMARK  152  A    between atoms: _370  and  _371
REMARK  153  A    between atoms: _373  and  _375
REMARK  154  A    between atoms: _375  and  _376
REMARK  155  A    between atoms: _375  and  _378
REMARK  156  A    between atoms: _378  and  _379
REMARK  157  A    between atoms: _379  and  _380
REMARK  158  A    between atoms: _382  and  _384
REMARK  159  A    between atoms: _384  and  _385
REMARK  160  A    between atoms: _387  and  _389
REMARK  161  A    between atoms: _389  and  _390
REMARK  162  A    between atoms: _389  and  _392
REMARK  163  A    between atoms: _392  and  _393
REMARK  164  A    between atoms: _396  and  _398
REMARK  165  A    between atoms: _398  and  _399
REMARK  166  A    between atoms: _398  and  _401
REMARK  167  A    between atoms: _401  and  _402
REMARK  168  A    between atoms: _408  and  _410
REMARK  169  A    between atoms: _410  and  _411
REMARK  170  A    between atoms: _410  and  _413
REMARK  171  A    between atoms: _413  and  _414
REMARK  172  A    between atoms: _417  and  _419
REMARK  173  A    between atoms: _419  and  _420
REMARK  174  A    between atoms: _422  and  _424
REMARK  175  A    between atoms: _424  and  _425
REMARK  176  A    between atoms: _424  and  _427
REMARK  177  A    between atoms: _427  and  _428
REMARK  178  A    between atoms: _431  and  _433
REMARK  179  A    between atoms: _433  and  _434
REMARK  180  A    between atoms: _436  and  _438
REMARK  181  A    between atoms: _438  and  _439
REMARK  182  A    between atoms: _438  and  _441
REMARK  183  A    between atoms: _441  and  _442
REMARK  184  A    between atoms: _442  and  _443
REMARK  185  A    between atoms: _446  and  _448
REMARK  186  A    between atoms: _448  and  _449
REMARK  187  A    between atoms: _448  and  _451
REMARK  188  A    between atoms: _451  and  _452
REMARK  189  A    between atoms: _452  and  _453
REMARK  190  A    between atoms: _455  and  _457
REMARK  191  A    between atoms: _457  and  _458
REMARK  192  A    between atoms: _457  and  _460
REMARK  193  A    between atoms: _460  and  _461
REMARK  194  A    between atoms: _464  and  _466
REMARK  195  A    between atoms: _466  and  _467
REMARK  196  A    between atoms: _466  and  _469
REMARK  197  A    between atoms: _469  and  _470
REMARK  198  A    between atoms: _470  and  _471
REMARK  199  A    between atoms: _474  and  _476
REMARK  200  A    between atoms: _476  and  _477
REMARK  201  A    between atoms: _476  and  _479
REMARK  202  A    between atoms: _479  and  _480
REMARK  203  A    between atoms: _480  and  _481
REMARK  204  A    between atoms: _484  and  _486
REMARK  205  A    between atoms: _486  and  _487
REMARK  206  A    between atoms: _486  and  _489
REMARK  207  A    between atoms: _489  and  _490
REMARK  208  A    between atoms: _492  and  _494
REMARK  209  A    between atoms: _494  and  _495
REMARK  210  A    between atoms: _494  and  _497
REMARK  211  A    between atoms: _497  and  _498
REMARK  212  A    between atoms: _501  and  _503
REMARK  213  A    between atoms: _503  and  _504
REMARK  214  A    between atoms: _503  and  _506
REMARK  215  A    between atoms: _506  and  _507
REMARK  216  A    between atoms: _512  and  _514
REMARK  217  A    between atoms: _514  and  _515
REMARK  218  A    between atoms: _514  and  _517
REMARK  219  A    between atoms: _519  and  _521
REMARK  220  A    between atoms: _525  and  _527
REMARK  221  A    between atoms: _532  and  _535
REMARK  222  A    between atoms: _535  and  _536
REMARK  223  A    between atoms: _541  and  _544
REMARK  224  A    between atoms: _542  and  _551
REMARK  225  A    between atoms: _544  and  _545
REMARK  226  A    between atoms: _545  and  _546
REMARK  227  A    between atoms: _551  and  _553
REMARK  228  A    between atoms: _553  and  _554
REMARK  229  A    between atoms: _553  and  _556
REMARK  230  A    between atoms: _556  and  _557
REMARK  231  A    between atoms: _557  and  _558
REMARK  232  A    between atoms: _558  and  _559
REMARK  233  A    between atoms: _568  and  _570
REMARK  234  A    between atoms: _570  and  _571
REMARK  235  A    between atoms: _570  and  _573
REMARK  236  A    between atoms: _573  and  _574
REMARK  237  A    between atoms: _577  and  _579
REMARK  238  A    between atoms: _579  and  _580
REMARK  239  A    between atoms: _579  and  _582
REMARK  240  A    between atoms: _582  and  _583
REMARK  241  A    between atoms: _586  and  _588
REMARK  242  A    between atoms: _588  and  _589
REMARK  243  A    between atoms: _592  and  _593
REMARK  244  A    between atoms: _598  and  _600
REMARK  245  A    between atoms: _600  and  _601
REMARK  246  A    between atoms: _600  and  _603
REMARK  247  A    between atoms: _606  and  _608
REMARK  248  A    between atoms: _608  and  _609
REMARK  249  A    between atoms: _608  and  _611
REMARK  250  A    between atoms: _611  and  _612
REMARK  251  A    between atoms: _612  and  _613
REMARK  252  A    between atoms: _618  and  _620
REMARK  253  A    between atoms: _620  and  _621
REMARK  254  A    between atoms: _620  and  _623
REMARK  255  A    between atoms: _623  and  _624
REMARK  256  A    between atoms: _627  and  _629
REMARK  257  A    between atoms: _629  and  _630
REMARK  258  A    between atoms: _629  and  _632
REMARK  259  A    between atoms: _632  and  _633
REMARK  260  A    between atoms: _633  and  _634
REMARK  261  A    between atoms: _634  and  _635
REMARK  262  A    between atoms: _635  and  _636
REMARK  263  A    between atoms: _640  and  _642
REMARK  264  A    between atoms: _642  and  _643
REMARK  265  A    between atoms: _645  and  _647
REMARK  266  A    between atoms: _647  and  _648
REMARK  267  A    between atoms: _647  and  _650
REMARK  268  A    between atoms: _650  and  _651
REMARK                            x       y       z     vdW  Elec       q    Type
REMARK                         _______ _______ _______ _____ _____    ______ ____
ROOT
ATOM      1  CB  GLN A   1      11.228 -24.550  16.768  0.00  0.00    +0.035 C 
ENDROOT
BRANCH   1   2
ATOM      2  CA  GLN A   1      10.540 -24.048  18.043  0.00  0.00    +0.134 C 
BRANCH   2   3
ATOM      3  N   GLN A   1       9.296 -24.774  18.250  0.00  0.00    -0.239 NA
ATOM      4  H   GLN A   1       8.987 -25.463  17.535  0.00  0.00    +0.142 HD
ENDBRANCH   2   3
BRANCH   2   5
ATOM      5  C   GLN A   1      10.289 -22.540  17.940  0.00  0.00    +0.224 C 
ATOM      6  O   GLN A   1      11.094 -21.726  18.395  0.00  0.00    -0.287 OA
ENDBRANCH   2   5
ENDBRANCH   1   2
BRANCH   1   7
ATOM      7  CG  GLN A   1      11.755 -25.975  16.866  0.00  0.00    +0.087 C 
BRANCH   7   8
ATOM      8  CD  GLN A   1      12.897 -26.110  17.855  0.00  0.00    +0.219 C 
ATOM      9  OE1 GLN A   1      12.687 -26.126  19.072  0.00  0.00    -0.275 OA
ATOM     10  NE2 GLN A   1      14.115 -26.206  17.337  0.00  0.00    -0.329 N 
ATOM     11 HE21 GLN A   1      14.940 -26.299  17.963  0.00  0.00    +0.145 HD
ATOM     12 HE22 GLN A   1      14.244 -26.188  16.305  0.00  0.00    +0.145 HD
ENDBRANCH   7   8
ENDBRANCH   1   7
TORSDOF 5
REMARK  Name = ../refined-set-2016/1rp7/1rp7_pocket.pdb
REMARK  268 active torsions:
REMARK  status: ('A' for Active; 'I' for Inactive)
REMARK    1  A    between atoms: _1  and  _3
REMARK    2  A    between atoms: _3  and  _4
REMARK    3  A    between atoms: _7  and  _9
REMARK    4  A    between atoms: _9  and  _10
REMARK    5  A    between atoms: _9  and  _12
REMARK    6  A    between atoms: _12  and  _13
REMARK    7  A    between atoms: _16  and  _18
REMARK    8  A    between atoms: _18  and  _19
REMARK    9  A    between atoms: _18  and  _21
REMARK   10  A    between atoms: _21  and  _22
REMARK   11  A    between atoms: _22  and  _23
REMARK   12  A    between atoms: _26  and  _28
REMARK   13  A    between atoms: _28  and  _29
REMARK   14  A    between atoms: _28  and  _31
REMARK   15  A    between atoms: _31  and  _32
REMARK   16  A    between atoms: _35  and  _37
REMARK   17  A    between atoms: _37  and  _38
REMARK   18  A    between atoms: _40  and  _42
REMARK   19  A    between atoms: _42  and  _43
REMARK   20  A    between atoms: _42  and  _45
REMARK   21  A    between atoms: _45  and  _46
REMARK   22  A    between atoms: _49  and  _51
REMARK   23  A    between atoms: _51  and  _52
REMARK   24  A    between atoms: _51  and  _54
REMARK   25  A    between atoms: _54  and  _55
REMARK   26  A    between atoms: _60  and  _62
REMARK   27  A    between atoms: _62  and  _63
REMARK   28  A    between atoms: _62  and  _65
REMARK   29  A    between atoms: _65  and  _66
REMARK   30  A    between atoms: _66  and  _67
REMARK   31  A    between atoms: _70  and  _72
REMARK   32  A    between atoms: _72  and  _73
REMARK   33  A    between atoms: _72  and  _75
REMARK   34  A    between atoms: _75  and  _76
REMARK   35  A    between atoms: _79  and  _81
REMARK   36  A    between atoms: _81  and  _82
REMARK   37  A    between atoms: _81  and  _84
REMARK   38  A    between atoms: _84  and  _85
REMARK   39  A    between atoms: _90  and  _91
REMARK   40  A    between atoms: _93  and  _95
REMARK   41  A    between atoms: _95  and  _96
REMARK   42  A    between atoms: _95  and  _98
REMARK   43  A    between atoms: _98  and  _99
REMARK   44  A    between atoms: _104  and  _105
REMARK   45  A    between atoms: _107  and  _109
REMARK   46  A    between atoms: _109  and  _110
REMARK   47  A    between atoms: _109  and  _112
REMARK   48  A    between atoms: _112  and  _113
REMARK   49  A    between atoms: _118  and  _119
REMARK   50  A    between atoms: _121  and  _123
REMARK   51  A    between atoms: _123  and  _124
REMARK   52  A    between atoms: _123  and  _126
REMARK   53  A    between atoms: _126  and  _127
REMARK   54  A    between atoms: _127  and  _128
REMARK   55  A    between atoms: _130  and  _132
REMARK   56  A    between atoms: _132  and  _133
REMARK   57  A    between atoms: _132  and  _135
REMARK   58  A    between atoms: _135  and  _136
REMARK   59  A    between atoms: _142  and  _144
REMARK   60  A    between atoms: _144  and  _145
REMARK   61  A    between atoms: _144  and  _147
REMARK   62  A    between atoms: _147  and  _148
REMARK   63  A    between atoms: _148  and  _149
REMARK   64  A    between atoms: _149  and  _150
REMARK   65  A    between atoms: _159  and  _161
REMARK   66  A    between atoms: _161  and  _162
REMARK   67  A    between atoms: _161  and  _164
REMARK   68  A    between atoms: _164  and  _165
REMARK   69  A    between atoms: _165  and  _166
REMARK   70  A    between atoms: _169  and  _171
REMARK   71  A    between atoms: _171  and  _172
REMARK   72  A    between atoms: _171  and  _174
REMARK   73  A    between atoms: _174  and  _175
REMARK   74  A    between atoms: _175  and  _176
REMARK   75  A    between atoms: _181  and  _183
REMARK   76  A    between atoms: _183  and  _184
REMARK   77  A    between atoms: _183  and  _186
REMARK   78  A    between atoms: _186  and  _187
REMARK   79  A    between atoms: _192  and  _194
REMARK   80  A    between atoms: _194  and  _195
REMARK   81  A    between atoms: _194  and  _197
REMARK   82  A    between atoms: _197  and  _198
REMARK   83  A    between atoms: _203  and  _205
REMARK   84  A    between atoms: _205  and  _206
REMARK   85  A    between atoms: _205  and  _208
REMARK   86  A    between atoms: _208  and  _209
REMARK   87  A    between atoms: _209  and  _210
REMARK   88  A    between atoms: _212  and  _214
REMARK   89  A    between atoms: _214  and  _215
REMARK   90  A    between atoms: _218  and  _220
REMARK   91  A    between atoms: _220  and  _221
REMARK   92  A    between atoms: _220  and  _223
REMARK   93  A    between atoms: _223  and  _224
REMARK   94  A    between atoms: _226  and  _228
REMARK   95  A    between atoms: _228  and  _229
REMARK   96  A    between atoms: _228  and  _231
REMARK   97  A    between atoms: _231  and  _232
REMARK   98  A    between atoms: _238  and  _240
REMARK   99  A    between atoms: _240  and  _241
REMARK  100  A    between atoms: _240  and  _243
REMARK  101  A    between atoms: _243  and  _244
REMARK  102  A    between atoms: _244  and  _245
REMARK  103  A    between atoms: _250  and  _252
REMARK  104  A    between atoms: _252  and  _253
REMARK  105  A    between atoms: _252  and  _255
REMARK  106  A    between atoms: _255  and  _256
REMARK  107  A    between atoms: _258  and  _260
REMARK  108  A    between atoms: _260  and  _261
REMARK  109  A    between atoms: _260  and  _263
REMARK  110  A    between atoms: _263  and  _264
REMARK  111  A    between atoms: _266  and  _268
REMARK  112  A    between atoms: _268  and  _269
REMARK  113  A    between atoms: _268  and  _271
REMARK  114  A    between atoms: _271  and  _272
REMARK  115  A    between atoms: _277  and  _278
REMARK  116  A    between atoms: _280  and  _282
REMARK  117  A    between atoms: _282  and  _283
REMARK  118  A    between atoms: _282  and  _285
REMARK  119  A    between atoms: _285  and  _286
REMARK  120  A    between atoms: _286  and  _287
REMARK  121  A    between atoms: _292  and  _294
REMARK  122  A    between atoms: _294  and  _295
REMARK  123  A    between atoms: _297  and  _299
REMARK  124  A    between atoms: _299  and  _300
REMARK  125  A    between atoms: _299  and  _302
REMARK  126  A    between atoms: _302  and  _303
REMARK  127  A    between atoms: _308  and  _310
REMARK  128  A    between atoms: _310  and  _311
REMARK  129  A    between atoms: _310  and  _313
REMARK  130  A    between atoms: _313  and  _314
REMARK  131  A    between atoms: _317  and  _319
REMARK  132  A    between atoms: _319  and  _320
REMARK  133  A    between atoms: _319  and  _322
REMARK  134  A    between atoms: _322  and  _323
REMARK  135  A    between atoms: _323  and  _324
REMARK  136  A    between atoms: _324  and  _325
REMARK  137  A    between atoms: _334  and  _336
REMARK  138  A    between atoms: _336  and  _337
REMARK  139  A    between atoms: _336  and  _339
REMARK  140  A    between atoms: _339  and  _340
REMARK  141  A    between atoms: _345  and  _346
REMARK  142  A    between atoms: _348  and  _350
REMARK  143  A    between atoms: _350  and  _351
REMARK  144  A    between atoms: _350  and  _353
REMARK  145  A    between atoms: _353  and  _354
REMARK  146  A    between atoms: _357  and  _359
REMARK  147  A    between atoms: _359  and  _360
REMARK  148  A    between atoms: _359  and  _362
REMARK  149  A    between atoms: _365  and  _367
REMARK  150  A    between atoms: _367  and  _368
REMARK  151  A    between atoms: _367  and  _370
REMARK  152  A    between atoms: _370  and  _371
REMARK  153  A    between atoms: _373  and  _375
REMARK  154  A    between atoms: _375  and  _376
REMARK  155  A    between atoms: _375  and  _378
REMARK  156  A    between atoms: _378  and  _379
REMARK  157  A    between atoms: _379  and  _380
REMARK  158  A    between atoms: _382  and  _384
REMARK  159  A    between atoms: _384  and  _385
REMARK  160  A    between atoms: _387  and  _389
REMARK  161  A    between atoms: _389  and  _390
REMARK  162  A    between atoms: _389  and  _392
REMARK  163  A    between atoms: _392  and  _393
REMARK  164  A    between atoms: _396  and  _398
REMARK  165  A    between atoms: _398  and  _399
REMARK  166  A    between atoms: _398  and  _401
REMARK  167  A    between atoms: _401  and  _402
REMARK  168  A    between atoms: _408  and  _410
REMARK  169  A    between atoms: _410  and  _411
REMARK  170  A    between atoms: _410  and  _413
REMARK  171  A    between atoms: _413  and  _414
REMARK  172  A    between atoms: _417  and  _419
REMARK  173  A    between atoms: _419  and  _420
REMARK  174  A    between atoms: _422  and  _424
REMARK  175  A    between atoms: _424  and  _425
REMARK  176  A    between atoms: _424  and  _427
REMARK  177  A    between atoms: _427  and  _428
REMARK  178  A    between atoms: _431  and  _433
REMARK  179  A    between atoms: _433  and  _434
REMARK  180  A    between atoms: _436  and  _438
REMARK  181  A    between atoms: _438  and  _439
REMARK  182  A    between atoms: _438  and  _441
REMARK  183  A    between atoms: _441  and  _442
REMARK  184  A    between atoms: _442  and  _443
REMARK  185  A    between atoms: _446  and  _448
REMARK  186  A    between atoms: _448  and  _449
REMARK  187  A    between atoms: _448  and  _451
REMARK  188  A    between atoms: _451  and  _452
REMARK  189  A    between atoms: _452  and  _453
REMARK  190  A    between atoms: _455  and  _457
REMARK  191  A    between atoms: _457  and  _458
REMARK  192  A    between atoms: _457  and  _460
REMARK  193  A    between atoms: _460  and  _461
REMARK  194  A    between atoms: _464  and  _466
REMARK  195  A    between atoms: _466  and  _467
REMARK  196  A    between atoms: _466  and  _469
REMARK  197  A    between atoms: _469  and  _470
REMARK  198  A    between atoms: _470  and  _471
REMARK  199  A    between atoms: _474  and  _476
REMARK  200  A    between atoms: _476  and  _477
REMARK  201  A    between atoms: _476  and  _479
REMARK  202  A    between atoms: _479  and  _480
REMARK  203  A    between atoms: _480  and  _481
REMARK  204  A    between atoms: _484  and  _486
REMARK  205  A    between atoms: _486  and  _487
REMARK  206  A    between atoms: _486  and  _489
REMARK  207  A    between atoms: _489  and  _490
REMARK  208  A    between atoms: _492  and  _494
REMARK  209  A    between atoms: _494  and  _495
REMARK  210  A    between atoms: _494  and  _497
REMARK  211  A    between atoms: _497  and  _498
REMARK  212  A    between atoms: _501  and  _503
REMARK  213  A    between atoms: _503  and  _504
REMARK  214  A    between atoms: _503  and  _506
REMARK  215  A    between atoms: _506  and  _507
REMARK  216  A    between atoms: _512  and  _514
REMARK  217  A    between atoms: _514  and  _515
REMARK  218  A    between atoms: _514  and  _517
REMARK  219  A    between atoms: _519  and  _521
REMARK  220  A    between atoms: _525  and  _527
REMARK  221  A    between atoms: _532  and  _535
REMARK  222  A    between atoms: _535  and  _536
REMARK  223  A    between atoms: _541  and  _544
REMARK  224  A    between atoms: _542  and  _551
REMARK  225  A    between atoms: _544  and  _545
REMARK  226  A    between atoms: _545  and  _546
REMARK  227  A    between atoms: _551  and  _553
REMARK  228  A    between atoms: _553  and  _554
REMARK  229  A    between atoms: _553  and  _556
REMARK  230  A    between atoms: _556  and  _557
REMARK  231  A    between atoms: _557  and  _558
REMARK  232  A    between atoms: _558  and  _559
REMARK  233  A    between atoms: _568  and  _570
REMARK  234  A    between atoms: _570  and  _571
REMARK  235  A    between atoms: _570  and  _573
REMARK  236  A    between atoms: _573  and  _574
REMARK  237  A    between atoms: _577  and  _579
REMARK  238  A    between atoms: _579  and  _580
REMARK  239  A    between atoms: _579  and  _582
REMARK  240  A    between atoms: _582  and  _583
REMARK  241  A    between atoms: _586  and  _588
REMARK  242  A    between atoms: _588  and  _589
REMARK  243  A    between atoms: _592  and  _593
REMARK  244  A    between atoms: _598  and  _600
REMARK  245  A    between atoms: _600  and  _601
REMARK  246  A    between atoms: _600  and  _603
REMARK  247  A    between atoms: _606  and  _608
REMARK  248  A    between atoms: _608  and  _609
REMARK  249  A    between atoms: _608  and  _611
REMARK  250  A    between atoms: _611  and  _612
REMARK  251  A    between atoms: _612  and  _613
REMARK  252  A    between atoms: _618  and  _620
REMARK  253  A    between atoms: _620  and  _621
REMARK  254  A    between atoms: _620  and  _623
REMARK  255  A    between atoms: _623  and  _624
REMARK  256  A    between atoms: _627  and  _629
REMARK  257  A    between atoms: _629  and  _630
REMARK  258  A    between atoms: _629  and  _632
REMARK  259  A    between atoms: _632  and  _633
REMARK  260  A    between atoms: _633  and  _634
REMARK  261  A    between atoms: _634  and  _635
REMARK  262  A    between atoms: _635  and  _636
REMARK  263  A    between atoms: _640  and  _642
REMARK  264  A    between atoms: _642  and  _643
REMARK  265  A    between atoms: _645  and  _647
REMARK  266  A    between atoms: _647  and  _648
REMARK  267  A    between atoms: _647  and  _650
REMARK  268  A    between atoms: _650  and  _651
REMARK                            x       y       z     vdW  Elec       q    Type
REMARK                         _______ _______ _______ _____ _____    ______ ____
ROOT
ATOM      1  CA  THR A   1      15.804 -29.934  24.923  0.00  0.00    +0.160 C 
ENDROOT
BRANCH   1   2
ATOM      2  N   THR A   1      14.944 -31.069  24.601  0.00  0.00    -0.237 NA
ATOM      3  H   THR A   1      14.874 -31.396  23.616  0.00  0.00    +0.142 HD
ENDBRANCH   1   2
BRANCH   1   4
ATOM      4  CB  THR A   1      17.300 -30.334  24.942  0.00  0.00    +0.134 C 
ATOM      5  CG2 THR A   1      17.532 -31.520  25.839  0.00  0.00    +0.034 C 
BRANCH   4   6
ATOM      6  OG1 THR A   1      17.713 -30.654  23.610  0.00  0.00    -0.383 OA
ATOM      7  HG1 THR A   1      18.669 -30.911  23.615  0.00  0.00    +0.210 HD
ENDBRANCH   4   6
ENDBRANCH   1   4
BRANCH   1   8
ATOM      8  C   THR A   1      15.688 -28.761  23.960  0.00  0.00    +0.227 C 
ATOM      9  O   THR A   1      14.947 -28.801  22.984  0.00  0.00    -0.287 OA
ENDBRANCH   1   8
TORSDOF 4
REMARK  Name = ../refined-set-2016/1rp7/1rp7_pocket.pdb
REMARK  268 active torsions:
REMARK  status: ('A' for Active; 'I' for Inactive)
REMARK    1  A    between atoms: _1  and  _3
REMARK    2  A    between atoms: _3  and  _4
REMARK    3  A    between atoms: _7  and  _9
REMARK    4  A    between atoms: _9  and  _10
REMARK    5  A    between atoms: _9  and  _12
REMARK    6  A    between atoms: _12  and  _13
REMARK    7  A    between atoms: _16  and  _18
REMARK    8  A    between atoms: _18  and  _19
REMARK    9  A    between atoms: _18  and  _21
REMARK   10  A    between atoms: _21  and  _22
REMARK   11  A    between atoms: _22  and  _23
REMARK   12  A    between atoms: _26  and  _28
REMARK   13  A    between atoms: _28  and  _29
REMARK   14  A    between atoms: _28  and  _31
REMARK   15  A    between atoms: _31  and  _32
REMARK   16  A    between atoms: _35  and  _37
REMARK   17  A    between atoms: _37  and  _38
REMARK   18  A    between atoms: _40  and  _42
REMARK   19  A    between atoms: _42  and  _43
REMARK   20  A    between atoms: _42  and  _45
REMARK   21  A    between atoms: _45  and  _46
REMARK   22  A    between atoms: _49  and  _51
REMARK   23  A    between atoms: _51  and  _52
REMARK   24  A    between atoms: _51  and  _54
REMARK   25  A    between atoms: _54  and  _55
REMARK   26  A    between atoms: _60  and  _62
REMARK   27  A    between atoms: _62  and  _63
REMARK   28  A    between atoms: _62  and  _65
REMARK   29  A    between atoms: _65  and  _66
REMARK   30  A    between atoms: _66  and  _67
REMARK   31  A    between atoms: _70  and  _72
REMARK   32  A    between atoms: _72  and  _73
REMARK   33  A    between atoms: _72  and  _75
REMARK   34  A    between atoms: _75  and  _76
REMARK   35  A    between atoms: _79  and  _81
REMARK   36  A    between atoms: _81  and  _82
REMARK   37  A    between atoms: _81  and  _84
REMARK   38  A    between atoms: _84  and  _85
REMARK   39  A    between atoms: _90  and  _91
REMARK   40  A    between atoms: _93  and  _95
REMARK   41  A    between atoms: _95  and  _96
REMARK   42  A    between atoms: _95  and  _98
REMARK   43  A    between atoms: _98  and  _99
REMARK   44  A    between atoms: _104  and  _105
REMARK   45  A    between atoms: _107  and  _109
REMARK   46  A    between atoms: _109  and  _110
REMARK   47  A    between atoms: _109  and  _112
REMARK   48  A    between atoms: _112  and  _113
REMARK   49  A    between atoms: _118  and  _119
REMARK   50  A    between atoms: _121  and  _123
REMARK   51  A    between atoms: _123  and  _124
REMARK   52  A    between atoms: _123  and  _126
REMARK   53  A    between atoms: _126  and  _127
REMARK   54  A    between atoms: _127  and  _128
REMARK   55  A    between atoms: _130  and  _132
REMARK   56  A    between atoms: _132  and  _133
REMARK   57  A    between atoms: _132  and  _135
REMARK   58  A    between atoms: _135  and  _136
REMARK   59  A    between atoms: _142  and  _144
REMARK   60  A    between atoms: _144  and  _145
REMARK   61  A    between atoms: _144  and  _147
REMARK   62  A    between atoms: _147  and  _148
REMARK   63  A    between atoms: _148  and  _149
REMARK   64  A    between atoms: _149  and  _150
REMARK   65  A    between atoms: _159  and  _161
REMARK   66  A    between atoms: _161  and  _162
REMARK   67  A    between atoms: _161  and  _164
REMARK   68  A    between atoms: _164  and  _165
REMARK   69  A    between atoms: _165  and  _166
REMARK   70  A    between atoms: _169  and  _171
REMARK   71  A    between atoms: _171  and  _172
REMARK   72  A    between atoms: _171  and  _174
REMARK   73  A    between atoms: _174  and  _175
REMARK   74  A    between atoms: _175  and  _176
REMARK   75  A    between atoms: _181  and  _183
REMARK   76  A    between atoms: _183  and  _184
REMARK   77  A    between atoms: _183  and  _186
REMARK   78  A    between atoms: _186  and  _187
REMARK   79  A    between atoms: _192  and  _194
REMARK   80  A    between atoms: _194  and  _195
REMARK   81  A    between atoms: _194  and  _197
REMARK   82  A    between atoms: _197  and  _198
REMARK   83  A    between atoms: _203  and  _205
REMARK   84  A    between atoms: _205  and  _206
REMARK   85  A    between atoms: _205  and  _208
REMARK   86  A    between atoms: _208  and  _209
REMARK   87  A    between atoms: _209  and  _210
REMARK   88  A    between atoms: _212  and  _214
REMARK   89  A    between atoms: _214  and  _215
REMARK   90  A    between atoms: _218  and  _220
REMARK   91  A    between atoms: _220  and  _221
REMARK   92  A    between atoms: _220  and  _223
REMARK   93  A    between atoms: _223  and  _224
REMARK   94  A    between atoms: _226  and  _228
REMARK   95  A    between atoms: _228  and  _229
REMARK   96  A    between atoms: _228  and  _231
REMARK   97  A    between atoms: _231  and  _232
REMARK   98  A    between atoms: _238  and  _240
REMARK   99  A    between atoms: _240  and  _241
REMARK  100  A    between atoms: _240  and  _243
REMARK  101  A    between atoms: _243  and  _244
REMARK  102  A    between atoms: _244  and  _245
REMARK  103  A    between atoms: _250  and  _252
REMARK  104  A    between atoms: _252  and  _253
REMARK  105  A    between atoms: _252  and  _255
REMARK  106  A    between atoms: _255  and  _256
REMARK  107  A    between atoms: _258  and  _260
REMARK  108  A    between atoms: _260  and  _261
REMARK  109  A    between atoms: _260  and  _263
REMARK  110  A    between atoms: _263  and  _264
REMARK  111  A    between atoms: _266  and  _268
REMARK  112  A    between atoms: _268  and  _269
REMARK  113  A    between atoms: _268  and  _271
REMARK  114  A    between atoms: _271  and  _272
REMARK  115  A    between atoms: _277  and  _278
REMARK  116  A    between atoms: _280  and  _282
REMARK  117  A    between atoms: _282  and  _283
REMARK  118  A    between atoms: _282  and  _285
REMARK  119  A    between atoms: _285  and  _286
REMARK  120  A    between atoms: _286  and  _287
REMARK  121  A    between atoms: _292  and  _294
REMARK  122  A    between atoms: _294  and  _295
REMARK  123  A    between atoms: _297  and  _299
REMARK  124  A    between atoms: _299  and  _300
REMARK  125  A    between atoms: _299  and  _302
REMARK  126  A    between atoms: _302  and  _303
REMARK  127  A    between atoms: _308  and  _310
REMARK  128  A    between atoms: _310  and  _311
REMARK  129  A    between atoms: _310  and  _313
REMARK  130  A    between atoms: _313  and  _314
REMARK  131  A    between atoms: _317  and  _319
REMARK  132  A    between atoms: _319  and  _320
REMARK  133  A    between atoms: _319  and  _322
REMARK  134  A    between atoms: _322  and  _323
REMARK  135  A    between atoms: _323  and  _324
REMARK  136  A    between atoms: _324  and  _325
REMARK  137  A    between atoms: _334  and  _336
REMARK  138  A    between atoms: _336  and  _337
REMARK  139  A    between atoms: _336  and  _339
REMARK  140  A    between atoms: _339  and  _340
REMARK  141  A    between atoms: _345  and  _346
REMARK  142  A    between atoms: _348  and  _350
REMARK  143  A    between atoms: _350  and  _351
REMARK  144  A    between atoms: _350  and  _353
REMARK  145  A    between atoms: _353  and  _354
REMARK  146  A    between atoms: _357  and  _359
REMARK  147  A    between atoms: _359  and  _360
REMARK  148  A    between atoms: _359  and  _362
REMARK  149  A    between atoms: _365  and  _367
REMARK  150  A    between atoms: _367  and  _368
REMARK  151  A    between atoms: _367  and  _370
REMARK  152  A    between atoms: _370  and  _371
REMARK  153  A    between atoms: _373  and  _375
REMARK  154  A    between atoms: _375  and  _376
REMARK  155  A    between atoms: _375  and  _378
REMARK  156  A    between atoms: _378  and  _379
REMARK  157  A    between atoms: _379  and  _380
REMARK  158  A    between atoms: _382  and  _384
REMARK  159  A    between atoms: _384  and  _385
REMARK  160  A    between atoms: _387  and  _389
REMARK  161  A    between atoms: _389  and  _390
REMARK  162  A    between atoms: _389  and  _392
REMARK  163  A    between atoms: _392  and  _393
REMARK  164  A    between atoms: _396  and  _398
REMARK  165  A    between atoms: _398  and  _399
REMARK  166  A    between atoms: _398  and  _401
REMARK  167  A    between atoms: _401  and  _402
REMARK  168  A    between atoms: _408  and  _410
REMARK  169  A    between atoms: _410  and  _411
REMARK  170  A    between atoms: _410  and  _413
REMARK  171  A    between atoms: _413  and  _414
REMARK  172  A    between atoms: _417  and  _419
REMARK  173  A    between atoms: _419  and  _420
REMARK  174  A    between atoms: _422  and  _424
REMARK  175  A    between atoms: _424  and  _425
REMARK  176  A    between atoms: _424  and  _427
REMARK  177  A    between atoms: _427  and  _428
REMARK  178  A    between atoms: _431  and  _433
REMARK  179  A    between atoms: _433  and  _434
REMARK  180  A    between atoms: _436  and  _438
REMARK  181  A    between atoms: _438  and  _439
REMARK  182  A    between atoms: _438  and  _441
REMARK  183  A    between atoms: _441  and  _442
REMARK  184  A    between atoms: _442  and  _443
REMARK  185  A    between atoms: _446  and  _448
REMARK  186  A    between atoms: _448  and  _449
REMARK  187  A    between atoms: _448  and  _451
REMARK  188  A    between atoms: _451  and  _452
REMARK  189  A    between atoms: _452  and  _453
REMARK  190  A    between atoms: _455  and  _457
REMARK  191  A    between atoms: _457  and  _458
REMARK  192  A    between atoms: _457  and  _460
REMARK  193  A    between atoms: _460  and  _461
REMARK  194  A    between atoms: _464  and  _466
REMARK  195  A    between atoms: _466  and  _467
REMARK  196  A    between atoms: _466  and  _469
REMARK  197  A    between atoms: _469  and  _470
REMARK  198  A    between atoms: _470  and  _471
REMARK  199  A    between atoms: _474  and  _476
REMARK  200  A    between atoms: _476  and  _477
REMARK  201  A    between atoms: _476  and  _479
REMARK  202  A    between atoms: _479  and  _480
REMARK  203  A    between atoms: _480  and  _481
REMARK  204  A    between atoms: _484  and  _486
REMARK  205  A    between atoms: _486  and  _487
REMARK  206  A    between atoms: _486  and  _489
REMARK  207  A    between atoms: _489  and  _490
REMARK  208  A    between atoms: _492  and  _494
REMARK  209  A    between atoms: _494  and  _495
REMARK  210  A    between atoms: _494  and  _497
REMARK  211  A    between atoms: _497  and  _498
REMARK  212  A    between atoms: _501  and  _503
REMARK  213  A    between atoms: _503  and  _504
REMARK  214  A    between atoms: _503  and  _506
REMARK  215  A    between atoms: _506  and  _507
REMARK  216  A    between atoms: _512  and  _514
REMARK  217  A    between atoms: _514  and  _515
REMARK  218  A    between atoms: _514  and  _517
REMARK  219  A    between atoms: _519  and  _521
REMARK  220  A    between atoms: _525  and  _527
REMARK  221  A    between atoms: _532  and  _535
REMARK  222  A    between atoms: _535  and  _536
REMARK  223  A    between atoms: _541  and  _544
REMARK  224  A    between atoms: _542  and  _551
REMARK  225  A    between atoms: _544  and  _545
REMARK  226  A    between atoms: _545  and  _546
REMARK  227  A    between atoms: _551  and  _553
REMARK  228  A    between atoms: _553  and  _554
REMARK  229  A    between atoms: _553  and  _556
REMARK  230  A    between atoms: _556  and  _557
REMARK  231  A    between atoms: _557  and  _558
REMARK  232  A    between atoms: _558  and  _559
REMARK  233  A    between atoms: _568  and  _570
REMARK  234  A    between atoms: _570  and  _571
REMARK  235  A    between atoms: _570  and  _573
REMARK  236  A    between atoms: _573  and  _574
REMARK  237  A    between atoms: _577  and  _579
REMARK  238  A    between atoms: _579  and  _580
REMARK  239  A    between atoms: _579  and  _582
REMARK  240  A    between atoms: _582  and  _583
REMARK  241  A    between atoms: _586  and  _588
REMARK  242  A    between atoms: _588  and  _589
REMARK  243  A    between atoms: _592  and  _593
REMARK  244  A    between atoms: _598  and  _600
REMARK  245  A    between atoms: _600  and  _601
REMARK  246  A    between atoms: _600  and  _603
REMARK  247  A    between atoms: _606  and  _608
REMARK  248  A    between atoms: _608  and  _609
REMARK  249  A    between atoms: _608  and  _611
REMARK  250  A    between atoms: _611  and  _612
REMARK  251  A    between atoms: _612  and  _613
REMARK  252  A    between atoms: _618  and  _620
REMARK  253  A    between atoms: _620  and  _621
REMARK  254  A    between atoms: _620  and  _623
REMARK  255  A    between atoms: _623  and  _624
REMARK  256  A    between atoms: _627  and  _629
REMARK  257  A    between atoms: _629  and  _630
REMARK  258  A    between atoms: _629  and  _632
REMARK  259  A    between atoms: _632  and  _633
REMARK  260  A    between atoms: _633  and  _634
REMARK  261  A    between atoms: _634  and  _635
REMARK  262  A    between atoms: _635  and  _636
REMARK  263  A    between atoms: _640  and  _642
REMARK  264  A    between atoms: _642  and  _643
REMARK  265  A    between atoms: _645  and  _647
REMARK  266  A    between atoms: _647  and  _648
REMARK  267  A    between atoms: _647  and  _650
REMARK  268  A    between atoms: _650  and  _651
REMARK                            x       y       z     vdW  Elec       q    Type
REMARK                         _______ _______ _______ _____ _____    ______ ____
ROOT
ATOM      1  CA  LYS A   1      19.381 -26.215  20.978  0.00  0.00    +0.145 C 
ENDROOT
BRANCH   1   2
ATOM      2  C   LYS A   1      19.859 -24.772  21.139  0.00  0.00    +0.238 C 
ATOM      3  N   GLY A   2      21.117 -24.596  21.527  0.00  0.00    -0.297 N 
ATOM      4  H   GLY A   2      21.730 -25.420  21.693  0.00  0.00    +0.150 HD
ATOM      5  O   LYS A   1      19.101 -23.835  20.906  0.00  0.00    -0.274 OA
BRANCH   3   6
ATOM      6  CA  GLY A   2      21.637 -23.255  21.719  0.00  0.00    +0.163 C 
BRANCH   6   7
ATOM      7  C   GLY A   2      21.027 -22.696  22.984  0.00  0.00    +0.229 C 
ATOM      8  O   GLY A   2      20.822 -21.493  23.122  0.00  0.00    -0.286 OA
ENDBRANCH   6   7
ENDBRANCH   3   6
ENDBRANCH   1   2
BRANCH   1   9
ATOM      9  N   LYS A   1      18.061 -26.362  21.594  0.00  0.00    -0.238 NA
ATOM     10  H   LYS A   1      17.220 -26.460  20.989  0.00  0.00    +0.142 HD
ENDBRANCH   1   9
BRANCH   1  11
ATOM     11  CB  LYS A   1      19.315 -26.565  19.493  0.00  0.00    +0.026 C 
BRANCH  11  12
ATOM     12  CG  LYS A   1      20.668 -26.755  18.845  0.00  0.00    -0.000 C 
BRANCH  12  13
ATOM     13  CD  LYS A   1      20.587 -27.741  17.688  0.00  0.00    -0.024 C 
BRANCH  13  14
ATOM     14  CE  LYS A   1      21.969 -28.052  17.134  0.00  0.00    -0.086 C 
BRANCH  14  15
ATOM     15  NZ  LYS A   1      21.894 -28.917  15.923  0.00  0.00    +0.380 N 
ATOM     16  HZ1 LYS A   1      21.429 -29.814  16.168  0.00  0.00    -0.089 HD
ATOM     17  HZ2 LYS A   1      22.855 -29.107  15.574  0.00  0.00    -0.089 HD
ATOM     18  HZ3 LYS A   1      21.346 -28.431  15.185  0.00  0.00    -0.089 HD
ENDBRANCH  14  15
ENDBRANCH  13  14
ENDBRANCH  12  13
ENDBRANCH  11  12
ENDBRANCH   1  11
TORSDOF 9
REMARK  Name = ../refined-set-2016/1rp7/1rp7_pocket.pdb
REMARK  268 active torsions:
REMARK  status: ('A' for Active; 'I' for Inactive)
REMARK    1  A    between atoms: _1  and  _3
REMARK    2  A    between atoms: _3  and  _4
REMARK    3  A    between atoms: _7  and  _9
REMARK    4  A    between atoms: _9  and  _10
REMARK    5  A    between atoms: _9  and  _12
REMARK    6  A    between atoms: _12  and  _13
REMARK    7  A    between atoms: _16  and  _18
REMARK    8  A    between atoms: _18  and  _19
REMARK    9  A    between atoms: _18  and  _21
REMARK   10  A    between atoms: _21  and  _22
REMARK   11  A    between atoms: _22  and  _23
REMARK   12  A    between atoms: _26  and  _28
REMARK   13  A    between atoms: _28  and  _29
REMARK   14  A    between atoms: _28  and  _31
REMARK   15  A    between atoms: _31  and  _32
REMARK   16  A    between atoms: _35  and  _37
REMARK   17  A    between atoms: _37  and  _38
REMARK   18  A    between atoms: _40  and  _42
REMARK   19  A    between atoms: _42  and  _43
REMARK   20  A    between atoms: _42  and  _45
REMARK   21  A    between atoms: _45  and  _46
REMARK   22  A    between atoms: _49  and  _51
REMARK   23  A    between atoms: _51  and  _52
REMARK   24  A    between atoms: _51  and  _54
REMARK   25  A    between atoms: _54  and  _55
REMARK   26  A    between atoms: _60  and  _62
REMARK   27  A    between atoms: _62  and  _63
REMARK   28  A    between atoms: _62  and  _65
REMARK   29  A    between atoms: _65  and  _66
REMARK   30  A    between atoms: _66  and  _67
REMARK   31  A    between atoms: _70  and  _72
REMARK   32  A    between atoms: _72  and  _73
REMARK   33  A    between atoms: _72  and  _75
REMARK   34  A    between atoms: _75  and  _76
REMARK   35  A    between atoms: _79  and  _81
REMARK   36  A    between atoms: _81  and  _82
REMARK   37  A    between atoms: _81  and  _84
REMARK   38  A    between atoms: _84  and  _85
REMARK   39  A    between atoms: _90  and  _91
REMARK   40  A    between atoms: _93  and  _95
REMARK   41  A    between atoms: _95  and  _96
REMARK   42  A    between atoms: _95  and  _98
REMARK   43  A    between atoms: _98  and  _99
REMARK   44  A    between atoms: _104  and  _105
REMARK   45  A    between atoms: _107  and  _109
REMARK   46  A    between atoms: _109  and  _110
REMARK   47  A    between atoms: _109  and  _112
REMARK   48  A    between atoms: _112  and  _113
REMARK   49  A    between atoms: _118  and  _119
REMARK   50  A    between atoms: _121  and  _123
REMARK   51  A    between atoms: _123  and  _124
REMARK   52  A    between atoms: _123  and  _126
REMARK   53  A    between atoms: _126  and  _127
REMARK   54  A    between atoms: _127  and  _128
REMARK   55  A    between atoms: _130  and  _132
REMARK   56  A    between atoms: _132  and  _133
REMARK   57  A    between atoms: _132  and  _135
REMARK   58  A    between atoms: _135  and  _136
REMARK   59  A    between atoms: _142  and  _144
REMARK   60  A    between atoms: _144  and  _145
REMARK   61  A    between atoms: _144  and  _147
REMARK   62  A    between atoms: _147  and  _148
REMARK   63  A    between atoms: _148  and  _149
REMARK   64  A    between atoms: _149  and  _150
REMARK   65  A    between atoms: _159  and  _161
REMARK   66  A    between atoms: _161  and  _162
REMARK   67  A    between atoms: _161  and  _164
REMARK   68  A    between atoms: _164  and  _165
REMARK   69  A    between atoms: _165  and  _166
REMARK   70  A    between atoms: _169  and  _171
REMARK   71  A    between atoms: _171  and  _172
REMARK   72  A    between atoms: _171  and  _174
REMARK   73  A    between atoms: _174  and  _175
REMARK   74  A    between atoms: _175  and  _176
REMARK   75  A    between atoms: _181  and  _183
REMARK   76  A    between atoms: _183  and  _184
REMARK   77  A    between atoms: _183  and  _186
REMARK   78  A    between atoms: _186  and  _187
REMARK   79  A    between atoms: _192  and  _194
REMARK   80  A    between atoms: _194  and  _195
REMARK   81  A    between atoms: _194  and  _197
REMARK   82  A    between atoms: _197  and  _198
REMARK   83  A    between atoms: _203  and  _205
REMARK   84  A    between atoms: _205  and  _206
REMARK   85  A    between atoms: _205  and  _208
REMARK   86  A    between atoms: _208  and  _209
REMARK   87  A    between atoms: _209  and  _210
REMARK   88  A    between atoms: _212  and  _214
REMARK   89  A    between atoms: _214  and  _215
REMARK   90  A    between atoms: _218  and  _220
REMARK   91  A    between atoms: _220  and  _221
REMARK   92  A    between atoms: _220  and  _223
REMARK   93  A    between atoms: _223  and  _224
REMARK   94  A    between atoms: _226  and  _228
REMARK   95  A    between atoms: _228  and  _229
REMARK   96  A    between atoms: _228  and  _231
REMARK   97  A    between atoms: _231  and  _232
REMARK   98  A    between atoms: _238  and  _240
REMARK   99  A    between atoms: _240  and  _241
REMARK  100  A    between atoms: _240  and  _243
REMARK  101  A    between atoms: _243  and  _244
REMARK  102  A    between atoms: _244  and  _245
REMARK  103  A    between atoms: _250  and  _252
REMARK  104  A    between atoms: _252  and  _253
REMARK  105  A    between atoms: _252  and  _255
REMARK  106  A    between atoms: _255  and  _256
REMARK  107  A    between atoms: _258  and  _260
REMARK  108  A    between atoms: _260  and  _261
REMARK  109  A    between atoms: _260  and  _263
REMARK  110  A    between atoms: _263  and  _264
REMARK  111  A    between atoms: _266  and  _268
REMARK  112  A    between atoms: _268  and  _269
REMARK  113  A    between atoms: _268  and  _271
REMARK  114  A    between atoms: _271  and  _272
REMARK  115  A    between atoms: _277  and  _278
REMARK  116  A    between atoms: _280  and  _282
REMARK  117  A    between atoms: _282  and  _283
REMARK  118  A    between atoms: _282  and  _285
REMARK  119  A    between atoms: _285  and  _286
REMARK  120  A    between atoms: _286  and  _287
REMARK  121  A    between atoms: _292  and  _294
REMARK  122  A    between atoms: _294  and  _295
REMARK  123  A    between atoms: _297  and  _299
REMARK  124  A    between atoms: _299  and  _300
REMARK  125  A    between atoms: _299  and  _302
REMARK  126  A    between atoms: _302  and  _303
REMARK  127  A    between atoms: _308  and  _310
REMARK  128  A    between atoms: _310  and  _311
REMARK  129  A    between atoms: _310  and  _313
REMARK  130  A    between atoms: _313  and  _314
REMARK  131  A    between atoms: _317  and  _319
REMARK  132  A    between atoms: _319  and  _320
REMARK  133  A    between atoms: _319  and  _322
REMARK  134  A    between atoms: _322  and  _323
REMARK  135  A    between atoms: _323  and  _324
REMARK  136  A    between atoms: _324  and  _325
REMARK  137  A    between atoms: _334  and  _336
REMARK  138  A    between atoms: _336  and  _337
REMARK  139  A    between atoms: _336  and  _339
REMARK  140  A    between atoms: _339  and  _340
REMARK  141  A    between atoms: _345  and  _346
REMARK  142  A    between atoms: _348  and  _350
REMARK  143  A    between atoms: _350  and  _351
REMARK  144  A    between atoms: _350  and  _353
REMARK  145  A    between atoms: _353  and  _354
REMARK  146  A    between atoms: _357  and  _359
REMARK  147  A    between atoms: _359  and  _360
REMARK  148  A    between atoms: _359  and  _362
REMARK  149  A    between atoms: _365  and  _367
REMARK  150  A    between atoms: _367  and  _368
REMARK  151  A    between atoms: _367  and  _370
REMARK  152  A    between atoms: _370  and  _371
REMARK  153  A    between atoms: _373  and  _375
REMARK  154  A    between atoms: _375  and  _376
REMARK  155  A    between atoms: _375  and  _378
REMARK  156  A    between atoms: _378  and  _379
REMARK  157  A    between atoms: _379  and  _380
REMARK  158  A    between atoms: _382  and  _384
REMARK  159  A    between atoms: _384  and  _385
REMARK  160  A    between atoms: _387  and  _389
REMARK  161  A    between atoms: _389  and  _390
REMARK  162  A    between atoms: _389  and  _392
REMARK  163  A    between atoms: _392  and  _393
REMARK  164  A    between atoms: _396  and  _398
REMARK  165  A    between atoms: _398  and  _399
REMARK  166  A    between atoms: _398  and  _401
REMARK  167  A    between atoms: _401  and  _402
REMARK  168  A    between atoms: _408  and  _410
REMARK  169  A    between atoms: _410  and  _411
REMARK  170  A    between atoms: _410  and  _413
REMARK  171  A    between atoms: _413  and  _414
REMARK  172  A    between atoms: _417  and  _419
REMARK  173  A    between atoms: _419  and  _420
REMARK  174  A    between atoms: _422  and  _424
REMARK  175  A    between atoms: _424  and  _425
REMARK  176  A    between atoms: _424  and  _427
REMARK  177  A    between atoms: _427  and  _428
REMARK  178  A    between atoms: _431  and  _433
REMARK  179  A    between atoms: _433  and  _434
REMARK  180  A    between atoms: _436  and  _438
REMARK  181  A    between atoms: _438  and  _439
REMARK  182  A    between atoms: _438  and  _441
REMARK  183  A    between atoms: _441  and  _442
REMARK  184  A    between atoms: _442  and  _443
REMARK  185  A    between atoms: _446  and  _448
REMARK  186  A    between atoms: _448  and  _449
REMARK  187  A    between atoms: _448  and  _451
REMARK  188  A    between atoms: _451  and  _452
REMARK  189  A    between atoms: _452  and  _453
REMARK  190  A    between atoms: _455  and  _457
REMARK  191  A    between atoms: _457  and  _458
REMARK  192  A    between atoms: _457  and  _460
REMARK  193  A    between atoms: _460  and  _461
REMARK  194  A    between atoms: _464  and  _466
REMARK  195  A    between atoms: _466  and  _467
REMARK  196  A    between atoms: _466  and  _469
REMARK  197  A    between atoms: _469  and  _470
REMARK  198  A    between atoms: _470  and  _471
REMARK  199  A    between atoms: _474  and  _476
REMARK  200  A    between atoms: _476  and  _477
REMARK  201  A    between atoms: _476  and  _479
REMARK  202  A    between atoms: _479  and  _480
REMARK  203  A    between atoms: _480  and  _481
REMARK  204  A    between atoms: _484  and  _486
REMARK  205  A    between atoms: _486  and  _487
REMARK  206  A    between atoms: _486  and  _489
REMARK  207  A    between atoms: _489  and  _490
REMARK  208  A    between atoms: _492  and  _494
REMARK  209  A    between atoms: _494  and  _495
REMARK  210  A    between atoms: _494  and  _497
REMARK  211  A    between atoms: _497  and  _498
REMARK  212  A    between atoms: _501  and  _503
REMARK  213  A    between atoms: _503  and  _504
REMARK  214  A    between atoms: _503  and  _506
REMARK  215  A    between atoms: _506  and  _507
REMARK  216  A    between atoms: _512  and  _514
REMARK  217  A    between atoms: _514  and  _515
REMARK  218  A    between atoms: _514  and  _517
REMARK  219  A    between atoms: _519  and  _521
REMARK  220  A    between atoms: _525  and  _527
REMARK  221  A    between atoms: _532  and  _535
REMARK  222  A    between atoms: _535  and  _536
REMARK  223  A    between atoms: _541  and  _544
REMARK  224  A    between atoms: _542  and  _551
REMARK  225  A    between atoms: _544  and  _545
REMARK  226  A    between atoms: _545  and  _546
REMARK  227  A    between atoms: _551  and  _553
REMARK  228  A    between atoms: _553  and  _554
REMARK  229  A    between atoms: _553  and  _556
REMARK  230  A    between atoms: _556  and  _557
REMARK  231  A    between atoms: _557  and  _558
REMARK  232  A    between atoms: _558  and  _559
REMARK  233  A    between atoms: _568  and  _570
REMARK  234  A    between atoms: _570  and  _571
REMARK  235  A    between atoms: _570  and  _573
REMARK  236  A    between atoms: _573  and  _574
REMARK  237  A    between atoms: _577  and  _579
REMARK  238  A    between atoms: _579  and  _580
REMARK  239  A    between atoms: _579  and  _582
REMARK  240  A    between atoms: _582  and  _583
REMARK  241  A    between atoms: _586  and  _588
REMARK  242  A    between atoms: _588  and  _589
REMARK  243  A    between atoms: _592  and  _593
REMARK  244  A    between atoms: _598  and  _600
REMARK  245  A    between atoms: _600  and  _601
REMARK  246  A    between atoms: _600  and  _603
REMARK  247  A    between atoms: _606  and  _608
REMARK  248  A    between atoms: _608  and  _609
REMARK  249  A    between atoms: _608  and  _611
REMARK  250  A    between atoms: _611  and  _612
REMARK  251  A    between atoms: _612  and  _613
REMARK  252  A    between atoms: _618  and  _620
REMARK  253  A    between atoms: _620  and  _621
REMARK  254  A    between atoms: _620  and  _623
REMARK  255  A    between atoms: _623  and  _624
REMARK  256  A    between atoms: _627  and  _629
REMARK  257  A    between atoms: _629  and  _630
REMARK  258  A    between atoms: _629  and  _632
REMARK  259  A    between atoms: _632  and  _633
REMARK  260  A    between atoms: _633  and  _634
REMARK  261  A    between atoms: _634  and  _635
REMARK  262  A    between atoms: _635  and  _636
REMARK  263  A    between atoms: _640  and  _642
REMARK  264  A    between atoms: _642  and  _643
REMARK  265  A    between atoms: _645  and  _647
REMARK  266  A    between atoms: _647  and  _648
REMARK  267  A    between atoms: _647  and  _650
REMARK  268  A    between atoms: _650  and  _651
REMARK                            x       y       z     vdW  Elec       q    Type
REMARK                         _______ _______ _______ _____ _____    ______ ____
ROOT
ATOM      1  CA  ASP A   1      32.702 -45.718   6.688  0.00  0.00    +0.144 C 
ENDROOT
BRANCH   1   2
ATOM      2  N   ASP A   1      32.646 -46.762   5.675  0.00  0.00    -0.239 NA
ATOM      3  H   ASP A   1      31.745 -46.991   5.208  0.00  0.00    +0.142 HD
ENDBRANCH   1   2
BRANCH   1   4
ATOM      4  C   ASP A   1      32.971 -46.380   8.025  0.00  0.00    +0.225 C 
ATOM      5  O   ASP A   1      33.669 -45.831   8.867  0.00  0.00    -0.287 OA
ENDBRANCH   1   4
BRANCH   1   6
ATOM      6  CB  ASP A   1      31.389 -44.926   6.732  0.00  0.00    +0.139 C 
BRANCH   6   7
ATOM      7  CG  ASP A   1      31.588 -43.448   7.123  0.00  0.00    +0.367 C 
ATOM      8  OD2 ASP A   1      30.620 -42.848   7.641  0.00  0.00    -0.246 OA
ATOM      9  OD1 ASP A   1      32.692 -42.882   6.915  0.00  0.00    -0.246 OA
ENDBRANCH   6   7
ENDBRANCH   1   6
TORSDOF 4
REMARK  Name = ../refined-set-2016/1rp7/1rp7_pocket.pdb
REMARK  268 active torsions:
REMARK  status: ('A' for Active; 'I' for Inactive)
REMARK    1  A    between atoms: _1  and  _3
REMARK    2  A    between atoms: _3  and  _4
REMARK    3  A    between atoms: _7  and  _9
REMARK    4  A    between atoms: _9  and  _10
REMARK    5  A    between atoms: _9  and  _12
REMARK    6  A    between atoms: _12  and  _13
REMARK    7  A    between atoms: _16  and  _18
REMARK    8  A    between atoms: _18  and  _19
REMARK    9  A    between atoms: _18  and  _21
REMARK   10  A    between atoms: _21  and  _22
REMARK   11  A    between atoms: _22  and  _23
REMARK   12  A    between atoms: _26  and  _28
REMARK   13  A    between atoms: _28  and  _29
REMARK   14  A    between atoms: _28  and  _31
REMARK   15  A    between atoms: _31  and  _32
REMARK   16  A    between atoms: _35  and  _37
REMARK   17  A    between atoms: _37  and  _38
REMARK   18  A    between atoms: _40  and  _42
REMARK   19  A    between atoms: _42  and  _43
REMARK   20  A    between atoms: _42  and  _45
REMARK   21  A    between atoms: _45  and  _46
REMARK   22  A    between atoms: _49  and  _51
REMARK   23  A    between atoms: _51  and  _52
REMARK   24  A    between atoms: _51  and  _54
REMARK   25  A    between atoms: _54  and  _55
REMARK   26  A    between atoms: _60  and  _62
REMARK   27  A    between atoms: _62  and  _63
REMARK   28  A    between atoms: _62  and  _65
REMARK   29  A    between atoms: _65  and  _66
REMARK   30  A    between atoms: _66  and  _67
REMARK   31  A    between atoms: _70  and  _72
REMARK   32  A    between atoms: _72  and  _73
REMARK   33  A    between atoms: _72  and  _75
REMARK   34  A    between atoms: _75  and  _76
REMARK   35  A    between atoms: _79  and  _81
REMARK   36  A    between atoms: _81  and  _82
REMARK   37  A    between atoms: _81  and  _84
REMARK   38  A    between atoms: _84  and  _85
REMARK   39  A    between atoms: _90  and  _91
REMARK   40  A    between atoms: _93  and  _95
REMARK   41  A    between atoms: _95  and  _96
REMARK   42  A    between atoms: _95  and  _98
REMARK   43  A    between atoms: _98  and  _99
REMARK   44  A    between atoms: _104  and  _105
REMARK   45  A    between atoms: _107  and  _109
REMARK   46  A    between atoms: _109  and  _110
REMARK   47  A    between atoms: _109  and  _112
REMARK   48  A    between atoms: _112  and  _113
REMARK   49  A    between atoms: _118  and  _119
REMARK   50  A    between atoms: _121  and  _123
REMARK   51  A    between atoms: _123  and  _124
REMARK   52  A    between atoms: _123  and  _126
REMARK   53  A    between atoms: _126  and  _127
REMARK   54  A    between atoms: _127  and  _128
REMARK   55  A    between atoms: _130  and  _132
REMARK   56  A    between atoms: _132  and  _133
REMARK   57  A    between atoms: _132  and  _135
REMARK   58  A    between atoms: _135  and  _136
REMARK   59  A    between atoms: _142  and  _144
REMARK   60  A    between atoms: _144  and  _145
REMARK   61  A    between atoms: _144  and  _147
REMARK   62  A    between atoms: _147  and  _148
REMARK   63  A    between atoms: _148  and  _149
REMARK   64  A    between atoms: _149  and  _150
REMARK   65  A    between atoms: _159  and  _161
REMARK   66  A    between atoms: _161  and  _162
REMARK   67  A    between atoms: _161  and  _164
REMARK   68  A    between atoms: _164  and  _165
REMARK   69  A    between atoms: _165  and  _166
REMARK   70  A    between atoms: _169  and  _171
REMARK   71  A    between atoms: _171  and  _172
REMARK   72  A    between atoms: _171  and  _174
REMARK   73  A    between atoms: _174  and  _175
REMARK   74  A    between atoms: _175  and  _176
REMARK   75  A    between atoms: _181  and  _183
REMARK   76  A    between atoms: _183  and  _184
REMARK   77  A    between atoms: _183  and  _186
REMARK   78  A    between atoms: _186  and  _187
REMARK   79  A    between atoms: _192  and  _194
REMARK   80  A    between atoms: _194  and  _195
REMARK   81  A    between atoms: _194  and  _197
REMARK   82  A    between atoms: _197  and  _198
REMARK   83  A    between atoms: _203  and  _205
REMARK   84  A    between atoms: _205  and  _206
REMARK   85  A    between atoms: _205  and  _208
REMARK   86  A    between atoms: _208  and  _209
REMARK   87  A    between atoms: _209  and  _210
REMARK   88  A    between atoms: _212  and  _214
REMARK   89  A    between atoms: _214  and  _215
REMARK   90  A    between atoms: _218  and  _220
REMARK   91  A    between atoms: _220  and  _221
REMARK   92  A    between atoms: _220  and  _223
REMARK   93  A    between atoms: _223  and  _224
REMARK   94  A    between atoms: _226  and  _228
REMARK   95  A    between atoms: _228  and  _229
REMARK   96  A    between atoms: _228  and  _231
REMARK   97  A    between atoms: _231  and  _232
REMARK   98  A    between atoms: _238  and  _240
REMARK   99  A    between atoms: _240  and  _241
REMARK  100  A    between atoms: _240  and  _243
REMARK  101  A    between atoms: _243  and  _244
REMARK  102  A    between atoms: _244  and  _245
REMARK  103  A    between atoms: _250  and  _252
REMARK  104  A    between atoms: _252  and  _253
REMARK  105  A    between atoms: _252  and  _255
REMARK  106  A    between atoms: _255  and  _256
REMARK  107  A    between atoms: _258  and  _260
REMARK  108  A    between atoms: _260  and  _261
REMARK  109  A    between atoms: _260  and  _263
REMARK  110  A    between atoms: _263  and  _264
REMARK  111  A    between atoms: _266  and  _268
REMARK  112  A    between atoms: _268  and  _269
REMARK  113  A    between atoms: _268  and  _271
REMARK  114  A    between atoms: _271  and  _272
REMARK  115  A    between atoms: _277  and  _278
REMARK  116  A    between atoms: _280  and  _282
REMARK  117  A    between atoms: _282  and  _283
REMARK  118  A    between atoms: _282  and  _285
REMARK  119  A    between atoms: _285  and  _286
REMARK  120  A    between atoms: _286  and  _287
REMARK  121  A    between atoms: _292  and  _294
REMARK  122  A    between atoms: _294  and  _295
REMARK  123  A    between atoms: _297  and  _299
REMARK  124  A    between atoms: _299  and  _300
REMARK  125  A    between atoms: _299  and  _302
REMARK  126  A    between atoms: _302  and  _303
REMARK  127  A    between atoms: _308  and  _310
REMARK  128  A    between atoms: _310  and  _311
REMARK  129  A    between atoms: _310  and  _313
REMARK  130  A    between atoms: _313  and  _314
REMARK  131  A    between atoms: _317  and  _319
REMARK  132  A    between atoms: _319  and  _320
REMARK  133  A    between atoms: _319  and  _322
REMARK  134  A    between atoms: _322  and  _323
REMARK  135  A    between atoms: _323  and  _324
REMARK  136  A    between atoms: _324  and  _325
REMARK  137  A    between atoms: _334  and  _336
REMARK  138  A    between atoms: _336  and  _337
REMARK  139  A    between atoms: _336  and  _339
REMARK  140  A    between atoms: _339  and  _340
REMARK  141  A    between atoms: _345  and  _346
REMARK  142  A    between atoms: _348  and  _350
REMARK  143  A    between atoms: _350  and  _351
REMARK  144  A    between atoms: _350  and  _353
REMARK  145  A    between atoms: _353  and  _354
REMARK  146  A    between atoms: _357  and  _359
REMARK  147  A    between atoms: _359  and  _360
REMARK  148  A    between atoms: _359  and  _362
REMARK  149  A    between atoms: _365  and  _367
REMARK  150  A    between atoms: _367  and  _368
REMARK  151  A    between atoms: _367  and  _370
REMARK  152  A    between atoms: _370  and  _371
REMARK  153  A    between atoms: _373  and  _375
REMARK  154  A    between atoms: _375  and  _376
REMARK  155  A    between atoms: _375  and  _378
REMARK  156  A    between atoms: _378  and  _379
REMARK  157  A    between atoms: _379  and  _380
REMARK  158  A    between atoms: _382  and  _384
REMARK  159  A    between atoms: _384  and  _385
REMARK  160  A    between atoms: _387  and  _389
REMARK  161  A    between atoms: _389  and  _390
REMARK  162  A    between atoms: _389  and  _392
REMARK  163  A    between atoms: _392  and  _393
REMARK  164  A    between atoms: _396  and  _398
REMARK  165  A    between atoms: _398  and  _399
REMARK  166  A    between atoms: _398  and  _401
REMARK  167  A    between atoms: _401  and  _402
REMARK  168  A    between atoms: _408  and  _410
REMARK  169  A    between atoms: _410  and  _411
REMARK  170  A    between atoms: _410  and  _413
REMARK  171  A    between atoms: _413  and  _414
REMARK  172  A    between atoms: _417  and  _419
REMARK  173  A    between atoms: _419  and  _420
REMARK  174  A    between atoms: _422  and  _424
REMARK  175  A    between atoms: _424  and  _425
REMARK  176  A    between atoms: _424  and  _427
REMARK  177  A    between atoms: _427  and  _428
REMARK  178  A    between atoms: _431  and  _433
REMARK  179  A    between atoms: _433  and  _434
REMARK  180  A    between atoms: _436  and  _438
REMARK  181  A    between atoms: _438  and  _439
REMARK  182  A    between atoms: _438  and  _441
REMARK  183  A    between atoms: _441  and  _442
REMARK  184  A    between atoms: _442  and  _443
REMARK  185  A    between atoms: _446  and  _448
REMARK  186  A    between atoms: _448  and  _449
REMARK  187  A    between atoms: _448  and  _451
REMARK  188  A    between atoms: _451  and  _452
REMARK  189  A    between atoms: _452  and  _453
REMARK  190  A    between atoms: _455  and  _457
REMARK  191  A    between atoms: _457  and  _458
REMARK  192  A    between atoms: _457  and  _460
REMARK  193  A    between atoms: _460  and  _461
REMARK  194  A    between atoms: _464  and  _466
REMARK  195  A    between atoms: _466  and  _467
REMARK  196  A    between atoms: _466  and  _469
REMARK  197  A    between atoms: _469  and  _470
REMARK  198  A    between atoms: _470  and  _471
REMARK  199  A    between atoms: _474  and  _476
REMARK  200  A    between atoms: _476  and  _477
REMARK  201  A    between atoms: _476  and  _479
REMARK  202  A    between atoms: _479  and  _480
REMARK  203  A    between atoms: _480  and  _481
REMARK  204  A    between atoms: _484  and  _486
REMARK  205  A    between atoms: _486  and  _487
REMARK  206  A    between atoms: _486  and  _489
REMARK  207  A    between atoms: _489  and  _490
REMARK  208  A    between atoms: _492  and  _494
REMARK  209  A    between atoms: _494  and  _495
REMARK  210  A    between atoms: _494  and  _497
REMARK  211  A    between atoms: _497  and  _498
REMARK  212  A    between atoms: _501  and  _503
REMARK  213  A    between atoms: _503  and  _504
REMARK  214  A    between atoms: _503  and  _506
REMARK  215  A    between atoms: _506  and  _507
REMARK  216  A    between atoms: _512  and  _514
REMARK  217  A    between atoms: _514  and  _515
REMARK  218  A    between atoms: _514  and  _517
REMARK  219  A    between atoms: _519  and  _521
REMARK  220  A    between atoms: _525  and  _527
REMARK  221  A    between atoms: _532  and  _535
REMARK  222  A    between atoms: _535  and  _536
REMARK  223  A    between atoms: _541  and  _544
REMARK  224  A    between atoms: _542  and  _551
REMARK  225  A    between atoms: _544  and  _545
REMARK  226  A    between atoms: _545  and  _546
REMARK  227  A    between atoms: _551  and  _553
REMARK  228  A    between atoms: _553  and  _554
REMARK  229  A    between atoms: _553  and  _556
REMARK  230  A    between atoms: _556  and  _557
REMARK  231  A    between atoms: _557  and  _558
REMARK  232  A    between atoms: _558  and  _559
REMARK  233  A    between atoms: _568  and  _570
REMARK  234  A    between atoms: _570  and  _571
REMARK  235  A    between atoms: _570  and  _573
REMARK  236  A    between atoms: _573  and  _574
REMARK  237  A    between atoms: _577  and  _579
REMARK  238  A    between atoms: _579  and  _580
REMARK  239  A    between atoms: _579  and  _582
REMARK  240  A    between atoms: _582  and  _583
REMARK  241  A    between atoms: _586  and  _588
REMARK  242  A    between atoms: _588  and  _589
REMARK  243  A    between atoms: _592  and  _593
REMARK  244  A    between atoms: _598  and  _600
REMARK  245  A    between atoms: _600  and  _601
REMARK  246  A    between atoms: _600  and  _603
REMARK  247  A    between atoms: _606  and  _608
REMARK  248  A    between atoms: _608  and  _609
REMARK  249  A    between atoms: _608  and  _611
REMARK  250  A    between atoms: _611  and  _612
REMARK  251  A    between atoms: _612  and  _613
REMARK  252  A    between atoms: _618  and  _620
REMARK  253  A    between atoms: _620  and  _621
REMARK  254  A    between atoms: _620  and  _623
REMARK  255  A    between atoms: _623  and  _624
REMARK  256  A    between atoms: _627  and  _629
REMARK  257  A    between atoms: _629  and  _630
REMARK  258  A    between atoms: _629  and  _632
REMARK  259  A    between atoms: _632  and  _633
REMARK  260  A    between atoms: _633  and  _634
REMARK  261  A    between atoms: _634  and  _635
REMARK  262  A    between atoms: _635  and  _636
REMARK  263  A    between atoms: _640  and  _642
REMARK  264  A    between atoms: _642  and  _643
REMARK  265  A    between atoms: _645  and  _647
REMARK  266  A    between atoms: _647  and  _648
REMARK  267  A    between atoms: _647  and  _650
REMARK  268  A    between atoms: _650  and  _651
REMARK                            x       y       z     vdW  Elec       q    Type
REMARK                         _______ _______ _______ _____ _____    ______ ____
ROOT
ATOM      1  O   HOH     1      24.284 -35.054   6.439  0.00  0.00    +0.000 OA
ENDROOT
TORSDOF 0
REMARK  Name = ../refined-set-2016/1rp7/1rp7_pocket.pdb
REMARK  268 active torsions:
REMARK  status: ('A' for Active; 'I' for Inactive)
REMARK    1  A    between atoms: _1  and  _3
REMARK    2  A    between atoms: _3  and  _4
REMARK    3  A    between atoms: _7  and  _9
REMARK    4  A    between atoms: _9  and  _10
REMARK    5  A    between atoms: _9  and  _12
REMARK    6  A    between atoms: _12  and  _13
REMARK    7  A    between atoms: _16  and  _18
REMARK    8  A    between atoms: _18  and  _19
REMARK    9  A    between atoms: _18  and  _21
REMARK   10  A    between atoms: _21  and  _22
REMARK   11  A    between atoms: _22  and  _23
REMARK   12  A    between atoms: _26  and  _28
REMARK   13  A    between atoms: _28  and  _29
REMARK   14  A    between atoms: _28  and  _31
REMARK   15  A    between atoms: _31  and  _32
REMARK   16  A    between atoms: _35  and  _37
REMARK   17  A    between atoms: _37  and  _38
REMARK   18  A    between atoms: _40  and  _42
REMARK   19  A    between atoms: _42  and  _43
REMARK   20  A    between atoms: _42  and  _45
REMARK   21  A    between atoms: _45  and  _46
REMARK   22  A    between atoms: _49  and  _51
REMARK   23  A    between atoms: _51  and  _52
REMARK   24  A    between atoms: _51  and  _54
REMARK   25  A    between atoms: _54  and  _55
REMARK   26  A    between atoms: _60  and  _62
REMARK   27  A    between atoms: _62  and  _63
REMARK   28  A    between atoms: _62  and  _65
REMARK   29  A    between atoms: _65  and  _66
REMARK   30  A    between atoms: _66  and  _67
REMARK   31  A    between atoms: _70  and  _72
REMARK   32  A    between atoms: _72  and  _73
REMARK   33  A    between atoms: _72  and  _75
REMARK   34  A    between atoms: _75  and  _76
REMARK   35  A    between atoms: _79  and  _81
REMARK   36  A    between atoms: _81  and  _82
REMARK   37  A    between atoms: _81  and  _84
REMARK   38  A    between atoms: _84  and  _85
REMARK   39  A    between atoms: _90  and  _91
REMARK   40  A    between atoms: _93  and  _95
REMARK   41  A    between atoms: _95  and  _96
REMARK   42  A    between atoms: _95  and  _98
REMARK   43  A    between atoms: _98  and  _99
REMARK   44  A    between atoms: _104  and  _105
REMARK   45  A    between atoms: _107  and  _109
REMARK   46  A    between atoms: _109  and  _110
REMARK   47  A    between atoms: _109  and  _112
REMARK   48  A    between atoms: _112  and  _113
REMARK   49  A    between atoms: _118  and  _119
REMARK   50  A    between atoms: _121  and  _123
REMARK   51  A    between atoms: _123  and  _124
REMARK   52  A    between atoms: _123  and  _126
REMARK   53  A    between atoms: _126  and  _127
REMARK   54  A    between atoms: _127  and  _128
REMARK   55  A    between atoms: _130  and  _132
REMARK   56  A    between atoms: _132  and  _133
REMARK   57  A    between atoms: _132  and  _135
REMARK   58  A    between atoms: _135  and  _136
REMARK   59  A    between atoms: _142  and  _144
REMARK   60  A    between atoms: _144  and  _145
REMARK   61  A    between atoms: _144  and  _147
REMARK   62  A    between atoms: _147  and  _148
REMARK   63  A    between atoms: _148  and  _149
REMARK   64  A    between atoms: _149  and  _150
REMARK   65  A    between atoms: _159  and  _161
REMARK   66  A    between atoms: _161  and  _162
REMARK   67  A    between atoms: _161  and  _164
REMARK   68  A    between atoms: _164  and  _165
REMARK   69  A    between atoms: _165  and  _166
REMARK   70  A    between atoms: _169  and  _171
REMARK   71  A    between atoms: _171  and  _172
REMARK   72  A    between atoms: _171  and  _174
REMARK   73  A    between atoms: _174  and  _175
REMARK   74  A    between atoms: _175  and  _176
REMARK   75  A    between atoms: _181  and  _183
REMARK   76  A    between atoms: _183  and  _184
REMARK   77  A    between atoms: _183  and  _186
REMARK   78  A    between atoms: _186  and  _187
REMARK   79  A    between atoms: _192  and  _194
REMARK   80  A    between atoms: _194  and  _195
REMARK   81  A    between atoms: _194  and  _197
REMARK   82  A    between atoms: _197  and  _198
REMARK   83  A    between atoms: _203  and  _205
REMARK   84  A    between atoms: _205  and  _206
REMARK   85  A    between atoms: _205  and  _208
REMARK   86  A    between atoms: _208  and  _209
REMARK   87  A    between atoms: _209  and  _210
REMARK   88  A    between atoms: _212  and  _214
REMARK   89  A    between atoms: _214  and  _215
REMARK   90  A    between atoms: _218  and  _220
REMARK   91  A    between atoms: _220  and  _221
REMARK   92  A    between atoms: _220  and  _223
REMARK   93  A    between atoms: _223  and  _224
REMARK   94  A    between atoms: _226  and  _228
REMARK   95  A    between atoms: _228  and  _229
REMARK   96  A    between atoms: _228  and  _231
REMARK   97  A    between atoms: _231  and  _232
REMARK   98  A    between atoms: _238  and  _240
REMARK   99  A    between atoms: _240  and  _241
REMARK  100  A    between atoms: _240  and  _243
REMARK  101  A    between atoms: _243  and  _244
REMARK  102  A    between atoms: _244  and  _245
REMARK  103  A    between atoms: _250  and  _252
REMARK  104  A    between atoms: _252  and  _253
REMARK  105  A    between atoms: _252  and  _255
REMARK  106  A    between atoms: _255  and  _256
REMARK  107  A    between atoms: _258  and  _260
REMARK  108  A    between atoms: _260  and  _261
REMARK  109  A    between atoms: _260  and  _263
REMARK  110  A    between atoms: _263  and  _264
REMARK  111  A    between atoms: _266  and  _268
REMARK  112  A    between atoms: _268  and  _269
REMARK  113  A    between atoms: _268  and  _271
REMARK  114  A    between atoms: _271  and  _272
REMARK  115  A    between atoms: _277  and  _278
REMARK  116  A    between atoms: _280  and  _282
REMARK  117  A    between atoms: _282  and  _283
REMARK  118  A    between atoms: _282  and  _285
REMARK  119  A    between atoms: _285  and  _286
REMARK  120  A    between atoms: _286  and  _287
REMARK  121  A    between atoms: _292  and  _294
REMARK  122  A    between atoms: _294  and  _295
REMARK  123  A    between atoms: _297  and  _299
REMARK  124  A    between atoms: _299  and  _300
REMARK  125  A    between atoms: _299  and  _302
REMARK  126  A    between atoms: _302  and  _303
REMARK  127  A    between atoms: _308  and  _310
REMARK  128  A    between atoms: _310  and  _311
REMARK  129  A    between atoms: _310  and  _313
REMARK  130  A    between atoms: _313  and  _314
REMARK  131  A    between atoms: _317  and  _319
REMARK  132  A    between atoms: _319  and  _320
REMARK  133  A    between atoms: _319  and  _322
REMARK  134  A    between atoms: _322  and  _323
REMARK  135  A    between atoms: _323  and  _324
REMARK  136  A    between atoms: _324  and  _325
REMARK  137  A    between atoms: _334  and  _336
REMARK  138  A    between atoms: _336  and  _337
REMARK  139  A    between atoms: _336  and  _339
REMARK  140  A    between atoms: _339  and  _340
REMARK  141  A    between atoms: _345  and  _346
REMARK  142  A    between atoms: _348  and  _350
REMARK  143  A    between atoms: _350  and  _351
REMARK  144  A    between atoms: _350  and  _353
REMARK  145  A    between atoms: _353  and  _354
REMARK  146  A    between atoms: _357  and  _359
REMARK  147  A    between atoms: _359  and  _360
REMARK  148  A    between atoms: _359  and  _362
REMARK  149  A    between atoms: _365  and  _367
REMARK  150  A    between atoms: _367  and  _368
REMARK  151  A    between atoms: _367  and  _370
REMARK  152  A    between atoms: _370  and  _371
REMARK  153  A    between atoms: _373  and  _375
REMARK  154  A    between atoms: _375  and  _376
REMARK  155  A    between atoms: _375  and  _378
REMARK  156  A    between atoms: _378  and  _379
REMARK  157  A    between atoms: _379  and  _380
REMARK  158  A    between atoms: _382  and  _384
REMARK  159  A    between atoms: _384  and  _385
REMARK  160  A    between atoms: _387  and  _389
REMARK  161  A    between atoms: _389  and  _390
REMARK  162  A    between atoms: _389  and  _392
REMARK  163  A    between atoms: _392  and  _393
REMARK  164  A    between atoms: _396  and  _398
REMARK  165  A    between atoms: _398  and  _399
REMARK  166  A    between atoms: _398  and  _401
REMARK  167  A    between atoms: _401  and  _402
REMARK  168  A    between atoms: _408  and  _410
REMARK  169  A    between atoms: _410  and  _411
REMARK  170  A    between atoms: _410  and  _413
REMARK  171  A    between atoms: _413  and  _414
REMARK  172  A    between atoms: _417  and  _419
REMARK  173  A    between atoms: _419  and  _420
REMARK  174  A    between atoms: _422  and  _424
REMARK  175  A    between atoms: _424  and  _425
REMARK  176  A    between atoms: _424  and  _427
REMARK  177  A    between atoms: _427  and  _428
REMARK  178  A    between atoms: _431  and  _433
REMARK  179  A    between atoms: _433  and  _434
REMARK  180  A    between atoms: _436  and  _438
REMARK  181  A    between atoms: _438  and  _439
REMARK  182  A    between atoms: _438  and  _441
REMARK  183  A    between atoms: _441  and  _442
REMARK  184  A    between atoms: _442  and  _443
REMARK  185  A    between atoms: _446  and  _448
REMARK  186  A    between atoms: _448  and  _449
REMARK  187  A    between atoms: _448  and  _451
REMARK  188  A    between atoms: _451  and  _452
REMARK  189  A    between atoms: _452  and  _453
REMARK  190  A    between atoms: _455  and  _457
REMARK  191  A    between atoms: _457  and  _458
REMARK  192  A    between atoms: _457  and  _460
REMARK  193  A    between atoms: _460  and  _461
REMARK  194  A    between atoms: _464  and  _466
REMARK  195  A    between atoms: _466  and  _467
REMARK  196  A    between atoms: _466  and  _469
REMARK  197  A    between atoms: _469  and  _470
REMARK  198  A    between atoms: _470  and  _471
REMARK  199  A    between atoms: _474  and  _476
REMARK  200  A    between atoms: _476  and  _477
REMARK  201  A    between atoms: _476  and  _479
REMARK  202  A    between atoms: _479  and  _480
REMARK  203  A    between atoms: _480  and  _481
REMARK  204  A    between atoms: _484  and  _486
REMARK  205  A    between atoms: _486  and  _487
REMARK  206  A    between atoms: _486  and  _489
REMARK  207  A    between atoms: _489  and  _490
REMARK  208  A    between atoms: _492  and  _494
REMARK  209  A    between atoms: _494  and  _495
REMARK  210  A    between atoms: _494  and  _497
REMARK  211  A    between atoms: _497  and  _498
REMARK  212  A    between atoms: _501  and  _503
REMARK  213  A    between atoms: _503  and  _504
REMARK  214  A    between atoms: _503  and  _506
REMARK  215  A    between atoms: _506  and  _507
REMARK  216  A    between atoms: _512  and  _514
REMARK  217  A    between atoms: _514  and  _515
REMARK  218  A    between atoms: _514  and  _517
REMARK  219  A    between atoms: _519  and  _521
REMARK  220  A    between atoms: _525  and  _527
REMARK  221  A    between atoms: _532  and  _535
REMARK  222  A    between atoms: _535  and  _536
REMARK  223  A    between atoms: _541  and  _544
REMARK  224  A    between atoms: _542  and  _551
REMARK  225  A    between atoms: _544  and  _545
REMARK  226  A    between atoms: _545  and  _546
REMARK  227  A    between atoms: _551  and  _553
REMARK  228  A    between atoms: _553  and  _554
REMARK  229  A    between atoms: _553  and  _556
REMARK  230  A    between atoms: _556  and  _557
REMARK  231  A    between atoms: _557  and  _558
REMARK  232  A    between atoms: _558  and  _559
REMARK  233  A    between atoms: _568  and  _570
REMARK  234  A    between atoms: _570  and  _571
REMARK  235  A    between atoms: _570  and  _573
REMARK  236  A    between atoms: _573  and  _574
REMARK  237  A    between atoms: _577  and  _579
REMARK  238  A    between atoms: _579  and  _580
REMARK  239  A    between atoms: _579  and  _582
REMARK  240  A    between atoms: _582  and  _583
REMARK  241  A    between atoms: _586  and  _588
REMARK  242  A    between atoms: _588  and  _589
REMARK  243  A    between atoms: _592  and  _593
REMARK  244  A    between atoms: _598  and  _600
REMARK  245  A    between atoms: _600  and  _601
REMARK  246  A    between atoms: _600  and  _603
REMARK  247  A    between atoms: _606  and  _608
REMARK  248  A    between atoms: _608  and  _609
REMARK  249  A    between atoms: _608  and  _611
REMARK  250  A    between atoms: _611  and  _612
REMARK  251  A    between atoms: _612  and  _613
REMARK  252  A    between atoms: _618  and  _620
REMARK  253  A    between atoms: _620  and  _621
REMARK  254  A    between atoms: _620  and  _623
REMARK  255  A    between atoms: _623  and  _624
REMARK  256  A    between atoms: _627  and  _629
REMARK  257  A    between atoms: _629  and  _630
REMARK  258  A    between atoms: _629  and  _632
REMARK  259  A    between atoms: _632  and  _633
REMARK  260  A    between atoms: _633  and  _634
REMARK  261  A    between atoms: _634  and  _635
REMARK  262  A    between atoms: _635  and  _636
REMARK  263  A    between atoms: _640  and  _642
REMARK  264  A    between atoms: _642  and  _643
REMARK  265  A    between atoms: _645  and  _647
REMARK  266  A    between atoms: _647  and  _648
REMARK  267  A    between atoms: _647  and  _650
REMARK  268  A    between atoms: _650  and  _651
REMARK                            x       y       z     vdW  Elec       q    Type
REMARK                         _______ _______ _______ _____ _____    ______ ____
ROOT
ATOM      1  O   HOH     1      31.083 -31.474  10.278  0.00  0.00    +0.000 OA
ENDROOT
TORSDOF 0
REMARK  Name = ../refined-set-2016/1rp7/1rp7_pocket.pdb
REMARK  268 active torsions:
REMARK  status: ('A' for Active; 'I' for Inactive)
REMARK    1  A    between atoms: _1  and  _3
REMARK    2  A    between atoms: _3  and  _4
REMARK    3  A    between atoms: _7  and  _9
REMARK    4  A    between atoms: _9  and  _10
REMARK    5  A    between atoms: _9  and  _12
REMARK    6  A    between atoms: _12  and  _13
REMARK    7  A    between atoms: _16  and  _18
REMARK    8  A    between atoms: _18  and  _19
REMARK    9  A    between atoms: _18  and  _21
REMARK   10  A    between atoms: _21  and  _22
REMARK   11  A    between atoms: _22  and  _23
REMARK   12  A    between atoms: _26  and  _28
REMARK   13  A    between atoms: _28  and  _29
REMARK   14  A    between atoms: _28  and  _31
REMARK   15  A    between atoms: _31  and  _32
REMARK   16  A    between atoms: _35  and  _37
REMARK   17  A    between atoms: _37  and  _38
REMARK   18  A    between atoms: _40  and  _42
REMARK   19  A    between atoms: _42  and  _43
REMARK   20  A    between atoms: _42  and  _45
REMARK   21  A    between atoms: _45  and  _46
REMARK   22  A    between atoms: _49  and  _51
REMARK   23  A    between atoms: _51  and  _52
REMARK   24  A    between atoms: _51  and  _54
REMARK   25  A    between atoms: _54  and  _55
REMARK   26  A    between atoms: _60  and  _62
REMARK   27  A    between atoms: _62  and  _63
REMARK   28  A    between atoms: _62  and  _65
REMARK   29  A    between atoms: _65  and  _66
REMARK   30  A    between atoms: _66  and  _67
REMARK   31  A    between atoms: _70  and  _72
REMARK   32  A    between atoms: _72  and  _73
REMARK   33  A    between atoms: _72  and  _75
REMARK   34  A    between atoms: _75  and  _76
REMARK   35  A    between atoms: _79  and  _81
REMARK   36  A    between atoms: _81  and  _82
REMARK   37  A    between atoms: _81  and  _84
REMARK   38  A    between atoms: _84  and  _85
REMARK   39  A    between atoms: _90  and  _91
REMARK   40  A    between atoms: _93  and  _95
REMARK   41  A    between atoms: _95  and  _96
REMARK   42  A    between atoms: _95  and  _98
REMARK   43  A    between atoms: _98  and  _99
REMARK   44  A    between atoms: _104  and  _105
REMARK   45  A    between atoms: _107  and  _109
REMARK   46  A    between atoms: _109  and  _110
REMARK   47  A    between atoms: _109  and  _112
REMARK   48  A    between atoms: _112  and  _113
REMARK   49  A    between atoms: _118  and  _119
REMARK   50  A    between atoms: _121  and  _123
REMARK   51  A    between atoms: _123  and  _124
REMARK   52  A    between atoms: _123  and  _126
REMARK   53  A    between atoms: _126  and  _127
REMARK   54  A    between atoms: _127  and  _128
REMARK   55  A    between atoms: _130  and  _132
REMARK   56  A    between atoms: _132  and  _133
REMARK   57  A    between atoms: _132  and  _135
REMARK   58  A    between atoms: _135  and  _136
REMARK   59  A    between atoms: _142  and  _144
REMARK   60  A    between atoms: _144  and  _145
REMARK   61  A    between atoms: _144  and  _147
REMARK   62  A    between atoms: _147  and  _148
REMARK   63  A    between atoms: _148  and  _149
REMARK   64  A    between atoms: _149  and  _150
REMARK   65  A    between atoms: _159  and  _161
REMARK   66  A    between atoms: _161  and  _162
REMARK   67  A    between atoms: _161  and  _164
REMARK   68  A    between atoms: _164  and  _165
REMARK   69  A    between atoms: _165  and  _166
REMARK   70  A    between atoms: _169  and  _171
REMARK   71  A    between atoms: _171  and  _172
REMARK   72  A    between atoms: _171  and  _174
REMARK   73  A    between atoms: _174  and  _175
REMARK   74  A    between atoms: _175  and  _176
REMARK   75  A    between atoms: _181  and  _183
REMARK   76  A    between atoms: _183  and  _184
REMARK   77  A    between atoms: _183  and  _186
REMARK   78  A    between atoms: _186  and  _187
REMARK   79  A    between atoms: _192  and  _194
REMARK   80  A    between atoms: _194  and  _195
REMARK   81  A    between atoms: _194  and  _197
REMARK   82  A    between atoms: _197  and  _198
REMARK   83  A    between atoms: _203  and  _205
REMARK   84  A    between atoms: _205  and  _206
REMARK   85  A    between atoms: _205  and  _208
REMARK   86  A    between atoms: _208  and  _209
REMARK   87  A    between atoms: _209  and  _210
REMARK   88  A    between atoms: _212  and  _214
REMARK   89  A    between atoms: _214  and  _215
REMARK   90  A    between atoms: _218  and  _220
REMARK   91  A    between atoms: _220  and  _221
REMARK   92  A    between atoms: _220  and  _223
REMARK   93  A    between atoms: _223  and  _224
REMARK   94  A    between atoms: _226  and  _228
REMARK   95  A    between atoms: _228  and  _229
REMARK   96  A    between atoms: _228  and  _231
REMARK   97  A    between atoms: _231  and  _232
REMARK   98  A    between atoms: _238  and  _240
REMARK   99  A    between atoms: _240  and  _241
REMARK  100  A    between atoms: _240  and  _243
REMARK  101  A    between atoms: _243  and  _244
REMARK  102  A    between atoms: _244  and  _245
REMARK  103  A    between atoms: _250  and  _252
REMARK  104  A    between atoms: _252  and  _253
REMARK  105  A    between atoms: _252  and  _255
REMARK  106  A    between atoms: _255  and  _256
REMARK  107  A    between atoms: _258  and  _260
REMARK  108  A    between atoms: _260  and  _261
REMARK  109  A    between atoms: _260  and  _263
REMARK  110  A    between atoms: _263  and  _264
REMARK  111  A    between atoms: _266  and  _268
REMARK  112  A    between atoms: _268  and  _269
REMARK  113  A    between atoms: _268  and  _271
REMARK  114  A    between atoms: _271  and  _272
REMARK  115  A    between atoms: _277  and  _278
REMARK  116  A    between atoms: _280  and  _282
REMARK  117  A    between atoms: _282  and  _283
REMARK  118  A    between atoms: _282  and  _285
REMARK  119  A    between atoms: _285  and  _286
REMARK  120  A    between atoms: _286  and  _287
REMARK  121  A    between atoms: _292  and  _294
REMARK  122  A    between atoms: _294  and  _295
REMARK  123  A    between atoms: _297  and  _299
REMARK  124  A    between atoms: _299  and  _300
REMARK  125  A    between atoms: _299  and  _302
REMARK  126  A    between atoms: _302  and  _303
REMARK  127  A    between atoms: _308  and  _310
REMARK  128  A    between atoms: _310  and  _311
REMARK  129  A    between atoms: _310  and  _313
REMARK  130  A    between atoms: _313  and  _314
REMARK  131  A    between atoms: _317  and  _319
REMARK  132  A    between atoms: _319  and  _320
REMARK  133  A    between atoms: _319  and  _322
REMARK  134  A    between atoms: _322  and  _323
REMARK  135  A    between atoms: _323  and  _324
REMARK  136  A    between atoms: _324  and  _325
REMARK  137  A    between atoms: _334  and  _336
REMARK  138  A    between atoms: _336  and  _337
REMARK  139  A    between atoms: _336  and  _339
REMARK  140  A    between atoms: _339  and  _340
REMARK  141  A    between atoms: _345  and  _346
REMARK  142  A    between atoms: _348  and  _350
REMARK  143  A    between atoms: _350  and  _351
REMARK  144  A    between atoms: _350  and  _353
REMARK  145  A    between atoms: _353  and  _354
REMARK  146  A    between atoms: _357  and  _359
REMARK  147  A    between atoms: _359  and  _360
REMARK  148  A    between atoms: _359  and  _362
REMARK  149  A    between atoms: _365  and  _367
REMARK  150  A    between atoms: _367  and  _368
REMARK  151  A    between atoms: _367  and  _370
REMARK  152  A    between atoms: _370  and  _371
REMARK  153  A    between atoms: _373  and  _375
REMARK  154  A    between atoms: _375  and  _376
REMARK  155  A    between atoms: _375  and  _378
REMARK  156  A    between atoms: _378  and  _379
REMARK  157  A    between atoms: _379  and  _380
REMARK  158  A    between atoms: _382  and  _384
REMARK  159  A    between atoms: _384  and  _385
REMARK  160  A    between atoms: _387  and  _389
REMARK  161  A    between atoms: _389  and  _390
REMARK  162  A    between atoms: _389  and  _392
REMARK  163  A    between atoms: _392  and  _393
REMARK  164  A    between atoms: _396  and  _398
REMARK  165  A    between atoms: _398  and  _399
REMARK  166  A    between atoms: _398  and  _401
REMARK  167  A    between atoms: _401  and  _402
REMARK  168  A    between atoms: _408  and  _410
REMARK  169  A    between atoms: _410  and  _411
REMARK  170  A    between atoms: _410  and  _413
REMARK  171  A    between atoms: _413  and  _414
REMARK  172  A    between atoms: _417  and  _419
REMARK  173  A    between atoms: _419  and  _420
REMARK  174  A    between atoms: _422  and  _424
REMARK  175  A    between atoms: _424  and  _425
REMARK  176  A    between atoms: _424  and  _427
REMARK  177  A    between atoms: _427  and  _428
REMARK  178  A    between atoms: _431  and  _433
REMARK  179  A    between atoms: _433  and  _434
REMARK  180  A    between atoms: _436  and  _438
REMARK  181  A    between atoms: _438  and  _439
REMARK  182  A    between atoms: _438  and  _441
REMARK  183  A    between atoms: _441  and  _442
REMARK  184  A    between atoms: _442  and  _443
REMARK  185  A    between atoms: _446  and  _448
REMARK  186  A    between atoms: _448  and  _449
REMARK  187  A    between atoms: _448  and  _451
REMARK  188  A    between atoms: _451  and  _452
REMARK  189  A    between atoms: _452  and  _453
REMARK  190  A    between atoms: _455  and  _457
REMARK  191  A    between atoms: _457  and  _458
REMARK  192  A    between atoms: _457  and  _460
REMARK  193  A    between atoms: _460  and  _461
REMARK  194  A    between atoms: _464  and  _466
REMARK  195  A    between atoms: _466  and  _467
REMARK  196  A    between atoms: _466  and  _469
REMARK  197  A    between atoms: _469  and  _470
REMARK  198  A    between atoms: _470  and  _471
REMARK  199  A    between atoms: _474  and  _476
REMARK  200  A    between atoms: _476  and  _477
REMARK  201  A    between atoms: _476  and  _479
REMARK  202  A    between atoms: _479  and  _480
REMARK  203  A    between atoms: _480  and  _481
REMARK  204  A    between atoms: _484  and  _486
REMARK  205  A    between atoms: _486  and  _487
REMARK  206  A    between atoms: _486  and  _489
REMARK  207  A    between atoms: _489  and  _490
REMARK  208  A    between atoms: _492  and  _494
REMARK  209  A    between atoms: _494  and  _495
REMARK  210  A    between atoms: _494  and  _497
REMARK  211  A    between atoms: _497  and  _498
REMARK  212  A    between atoms: _501  and  _503
REMARK  213  A    between atoms: _503  and  _504
REMARK  214  A    between atoms: _503  and  _506
REMARK  215  A    between atoms: _506  and  _507
REMARK  216  A    between atoms: _512  and  _514
REMARK  217  A    between atoms: _514  and  _515
REMARK  218  A    between atoms: _514  and  _517
REMARK  219  A    between atoms: _519  and  _521
REMARK  220  A    between atoms: _525  and  _527
REMARK  221  A    between atoms: _532  and  _535
REMARK  222  A    between atoms: _535  and  _536
REMARK  223  A    between atoms: _541  and  _544
REMARK  224  A    between atoms: _542  and  _551
REMARK  225  A    between atoms: _544  and  _545
REMARK  226  A    between atoms: _545  and  _546
REMARK  227  A    between atoms: _551  and  _553
REMARK  228  A    between atoms: _553  and  _554
REMARK  229  A    between atoms: _553  and  _556
REMARK  230  A    between atoms: _556  and  _557
REMARK  231  A    between atoms: _557  and  _558
REMARK  232  A    between atoms: _558  and  _559
REMARK  233  A    between atoms: _568  and  _570
REMARK  234  A    between atoms: _570  and  _571
REMARK  235  A    between atoms: _570  and  _573
REMARK  236  A    between atoms: _573  and  _574
REMARK  237  A    between atoms: _577  and  _579
REMARK  238  A    between atoms: _579  and  _580
REMARK  239  A    between atoms: _579  and  _582
REMARK  240  A    between atoms: _582  and  _583
REMARK  241  A    between atoms: _586  and  _588
REMARK  242  A    between atoms: _588  and  _589
REMARK  243  A    between atoms: _592  and  _593
REMARK  244  A    between atoms: _598  and  _600
REMARK  245  A    between atoms: _600  and  _601
REMARK  246  A    between atoms: _600  and  _603
REMARK  247  A    between atoms: _606  and  _608
REMARK  248  A    between atoms: _608  and  _609
REMARK  249  A    between atoms: _608  and  _611
REMARK  250  A    between atoms: _611  and  _612
REMARK  251  A    between atoms: _612  and  _613
REMARK  252  A    between atoms: _618  and  _620
REMARK  253  A    between atoms: _620  and  _621
REMARK  254  A    between atoms: _620  and  _623
REMARK  255  A    between atoms: _623  and  _624
REMARK  256  A    between atoms: _627  and  _629
REMARK  257  A    between atoms: _629  and  _630
REMARK  258  A    between atoms: _629  and  _632
REMARK  259  A    between atoms: _632  and  _633
REMARK  260  A    between atoms: _633  and  _634
REMARK  261  A    between atoms: _634  and  _635
REMARK  262  A    between atoms: _635  and  _636
REMARK  263  A    between atoms: _640  and  _642
REMARK  264  A    between atoms: _642  and  _643
REMARK  265  A    between atoms: _645  and  _647
REMARK  266  A    between atoms: _647  and  _648
REMARK  267  A    between atoms: _647  and  _650
REMARK  268  A    between atoms: _650  and  _651
REMARK                            x       y       z     vdW  Elec       q    Type
REMARK                         _______ _______ _______ _____ _____    ______ ____
ROOT
ATOM      1  O   HOH     1      28.309 -29.906  10.663  0.00  0.00    +0.000 OA
ENDROOT
TORSDOF 0
REMARK  Name = ../refined-set-2016/1rp7/1rp7_pocket.pdb
REMARK  268 active torsions:
REMARK  status: ('A' for Active; 'I' for Inactive)
REMARK    1  A    between atoms: _1  and  _3
REMARK    2  A    between atoms: _3  and  _4
REMARK    3  A    between atoms: _7  and  _9
REMARK    4  A    between atoms: _9  and  _10
REMARK    5  A    between atoms: _9  and  _12
REMARK    6  A    between atoms: _12  and  _13
REMARK    7  A    between atoms: _16  and  _18
REMARK    8  A    between atoms: _18  and  _19
REMARK    9  A    between atoms: _18  and  _21
REMARK   10  A    between atoms: _21  and  _22
REMARK   11  A    between atoms: _22  and  _23
REMARK   12  A    between atoms: _26  and  _28
REMARK   13  A    between atoms: _28  and  _29
REMARK   14  A    between atoms: _28  and  _31
REMARK   15  A    between atoms: _31  and  _32
REMARK   16  A    between atoms: _35  and  _37
REMARK   17  A    between atoms: _37  and  _38
REMARK   18  A    between atoms: _40  and  _42
REMARK   19  A    between atoms: _42  and  _43
REMARK   20  A    between atoms: _42  and  _45
REMARK   21  A    between atoms: _45  and  _46
REMARK   22  A    between atoms: _49  and  _51
REMARK   23  A    between atoms: _51  and  _52
REMARK   24  A    between atoms: _51  and  _54
REMARK   25  A    between atoms: _54  and  _55
REMARK   26  A    between atoms: _60  and  _62
REMARK   27  A    between atoms: _62  and  _63
REMARK   28  A    between atoms: _62  and  _65
REMARK   29  A    between atoms: _65  and  _66
REMARK   30  A    between atoms: _66  and  _67
REMARK   31  A    between atoms: _70  and  _72
REMARK   32  A    between atoms: _72  and  _73
REMARK   33  A    between atoms: _72  and  _75
REMARK   34  A    between atoms: _75  and  _76
REMARK   35  A    between atoms: _79  and  _81
REMARK   36  A    between atoms: _81  and  _82
REMARK   37  A    between atoms: _81  and  _84
REMARK   38  A    between atoms: _84  and  _85
REMARK   39  A    between atoms: _90  and  _91
REMARK   40  A    between atoms: _93  and  _95
REMARK   41  A    between atoms: _95  and  _96
REMARK   42  A    between atoms: _95  and  _98
REMARK   43  A    between atoms: _98  and  _99
REMARK   44  A    between atoms: _104  and  _105
REMARK   45  A    between atoms: _107  and  _109
REMARK   46  A    between atoms: _109  and  _110
REMARK   47  A    between atoms: _109  and  _112
REMARK   48  A    between atoms: _112  and  _113
REMARK   49  A    between atoms: _118  and  _119
REMARK   50  A    between atoms: _121  and  _123
REMARK   51  A    between atoms: _123  and  _124
REMARK   52  A    between atoms: _123  and  _126
REMARK   53  A    between atoms: _126  and  _127
REMARK   54  A    between atoms: _127  and  _128
REMARK   55  A    between atoms: _130  and  _132
REMARK   56  A    between atoms: _132  and  _133
REMARK   57  A    between atoms: _132  and  _135
REMARK   58  A    between atoms: _135  and  _136
REMARK   59  A    between atoms: _142  and  _144
REMARK   60  A    between atoms: _144  and  _145
REMARK   61  A    between atoms: _144  and  _147
REMARK   62  A    between atoms: _147  and  _148
REMARK   63  A    between atoms: _148  and  _149
REMARK   64  A    between atoms: _149  and  _150
REMARK   65  A    between atoms: _159  and  _161
REMARK   66  A    between atoms: _161  and  _162
REMARK   67  A    between atoms: _161  and  _164
REMARK   68  A    between atoms: _164  and  _165
REMARK   69  A    between atoms: _165  and  _166
REMARK   70  A    between atoms: _169  and  _171
REMARK   71  A    between atoms: _171  and  _172
REMARK   72  A    between atoms: _171  and  _174
REMARK   73  A    between atoms: _174  and  _175
REMARK   74  A    between atoms: _175  and  _176
REMARK   75  A    between atoms: _181  and  _183
REMARK   76  A    between atoms: _183  and  _184
REMARK   77  A    between atoms: _183  and  _186
REMARK   78  A    between atoms: _186  and  _187
REMARK   79  A    between atoms: _192  and  _194
REMARK   80  A    between atoms: _194  and  _195
REMARK   81  A    between atoms: _194  and  _197
REMARK   82  A    between atoms: _197  and  _198
REMARK   83  A    between atoms: _203  and  _205
REMARK   84  A    between atoms: _205  and  _206
REMARK   85  A    between atoms: _205  and  _208
REMARK   86  A    between atoms: _208  and  _209
REMARK   87  A    between atoms: _209  and  _210
REMARK   88  A    between atoms: _212  and  _214
REMARK   89  A    between atoms: _214  and  _215
REMARK   90  A    between atoms: _218  and  _220
REMARK   91  A    between atoms: _220  and  _221
REMARK   92  A    between atoms: _220  and  _223
REMARK   93  A    between atoms: _223  and  _224
REMARK   94  A    between atoms: _226  and  _228
REMARK   95  A    between atoms: _228  and  _229
REMARK   96  A    between atoms: _228  and  _231
REMARK   97  A    between atoms: _231  and  _232
REMARK   98  A    between atoms: _238  and  _240
REMARK   99  A    between atoms: _240  and  _241
REMARK  100  A    between atoms: _240  and  _243
REMARK  101  A    between atoms: _243  and  _244
REMARK  102  A    between atoms: _244  and  _245
REMARK  103  A    between atoms: _250  and  _252
REMARK  104  A    between atoms: _252  and  _253
REMARK  105  A    between atoms: _252  and  _255
REMARK  106  A    between atoms: _255  and  _256
REMARK  107  A    between atoms: _258  and  _260
REMARK  108  A    between atoms: _260  and  _261
REMARK  109  A    between atoms: _260  and  _263
REMARK  110  A    between atoms: _263  and  _264
REMARK  111  A    between atoms: _266  and  _268
REMARK  112  A    between atoms: _268  and  _269
REMARK  113  A    between atoms: _268  and  _271
REMARK  114  A    between atoms: _271  and  _272
REMARK  115  A    between atoms: _277  and  _278
REMARK  116  A    between atoms: _280  and  _282
REMARK  117  A    between atoms: _282  and  _283
REMARK  118  A    between atoms: _282  and  _285
REMARK  119  A    between atoms: _285  and  _286
REMARK  120  A    between atoms: _286  and  _287
REMARK  121  A    between atoms: _292  and  _294
REMARK  122  A    between atoms: _294  and  _295
REMARK  123  A    between atoms: _297  and  _299
REMARK  124  A    between atoms: _299  and  _300
REMARK  125  A    between atoms: _299  and  _302
REMARK  126  A    between atoms: _302  and  _303
REMARK  127  A    between atoms: _308  and  _310
REMARK  128  A    between atoms: _310  and  _311
REMARK  129  A    between atoms: _310  and  _313
REMARK  130  A    between atoms: _313  and  _314
REMARK  131  A    between atoms: _317  and  _319
REMARK  132  A    between atoms: _319  and  _320
REMARK  133  A    between atoms: _319  and  _322
REMARK  134  A    between atoms: _322  and  _323
REMARK  135  A    between atoms: _323  and  _324
REMARK  136  A    between atoms: _324  and  _325
REMARK  137  A    between atoms: _334  and  _336
REMARK  138  A    between atoms: _336  and  _337
REMARK  139  A    between atoms: _336  and  _339
REMARK  140  A    between atoms: _339  and  _340
REMARK  141  A    between atoms: _345  and  _346
REMARK  142  A    between atoms: _348  and  _350
REMARK  143  A    between atoms: _350  and  _351
REMARK  144  A    between atoms: _350  and  _353
REMARK  145  A    between atoms: _353  and  _354
REMARK  146  A    between atoms: _357  and  _359
REMARK  147  A    between atoms: _359  and  _360
REMARK  148  A    between atoms: _359  and  _362
REMARK  149  A    between atoms: _365  and  _367
REMARK  150  A    between atoms: _367  and  _368
REMARK  151  A    between atoms: _367  and  _370
REMARK  152  A    between atoms: _370  and  _371
REMARK  153  A    between atoms: _373  and  _375
REMARK  154  A    between atoms: _375  and  _376
REMARK  155  A    between atoms: _375  and  _378
REMARK  156  A    between atoms: _378  and  _379
REMARK  157  A    between atoms: _379  and  _380
REMARK  158  A    between atoms: _382  and  _384
REMARK  159  A    between atoms: _384  and  _385
REMARK  160  A    between atoms: _387  and  _389
REMARK  161  A    between atoms: _389  and  _390
REMARK  162  A    between atoms: _389  and  _392
REMARK  163  A    between atoms: _392  and  _393
REMARK  164  A    between atoms: _396  and  _398
REMARK  165  A    between atoms: _398  and  _399
REMARK  166  A    between atoms: _398  and  _401
REMARK  167  A    between atoms: _401  and  _402
REMARK  168  A    between atoms: _408  and  _410
REMARK  169  A    between atoms: _410  and  _411
REMARK  170  A    between atoms: _410  and  _413
REMARK  171  A    between atoms: _413  and  _414
REMARK  172  A    between atoms: _417  and  _419
REMARK  173  A    between atoms: _419  and  _420
REMARK  174  A    between atoms: _422  and  _424
REMARK  175  A    between atoms: _424  and  _425
REMARK  176  A    between atoms: _424  and  _427
REMARK  177  A    between atoms: _427  and  _428
REMARK  178  A    between atoms: _431  and  _433
REMARK  179  A    between atoms: _433  and  _434
REMARK  180  A    between atoms: _436  and  _438
REMARK  181  A    between atoms: _438  and  _439
REMARK  182  A    between atoms: _438  and  _441
REMARK  183  A    between atoms: _441  and  _442
REMARK  184  A    between atoms: _442  and  _443
REMARK  185  A    between atoms: _446  and  _448
REMARK  186  A    between atoms: _448  and  _449
REMARK  187  A    between atoms: _448  and  _451
REMARK  188  A    between atoms: _451  and  _452
REMARK  189  A    between atoms: _452  and  _453
REMARK  190  A    between atoms: _455  and  _457
REMARK  191  A    between atoms: _457  and  _458
REMARK  192  A    between atoms: _457  and  _460
REMARK  193  A    between atoms: _460  and  _461
REMARK  194  A    between atoms: _464  and  _466
REMARK  195  A    between atoms: _466  and  _467
REMARK  196  A    between atoms: _466  and  _469
REMARK  197  A    between atoms: _469  and  _470
REMARK  198  A    between atoms: _470  and  _471
REMARK  199  A    between atoms: _474  and  _476
REMARK  200  A    between atoms: _476  and  _477
REMARK  201  A    between atoms: _476  and  _479
REMARK  202  A    between atoms: _479  and  _480
REMARK  203  A    between atoms: _480  and  _481
REMARK  204  A    between atoms: _484  and  _486
REMARK  205  A    between atoms: _486  and  _487
REMARK  206  A    between atoms: _486  and  _489
REMARK  207  A    between atoms: _489  and  _490
REMARK  208  A    between atoms: _492  and  _494
REMARK  209  A    between atoms: _494  and  _495
REMARK  210  A    between atoms: _494  and  _497
REMARK  211  A    between atoms: _497  and  _498
REMARK  212  A    between atoms: _501  and  _503
REMARK  213  A    between atoms: _503  and  _504
REMARK  214  A    between atoms: _503  and  _506
REMARK  215  A    between atoms: _506  and  _507
REMARK  216  A    between atoms: _512  and  _514
REMARK  217  A    between atoms: _514  and  _515
REMARK  218  A    between atoms: _514  and  _517
REMARK  219  A    between atoms: _519  and  _521
REMARK  220  A    between atoms: _525  and  _527
REMARK  221  A    between atoms: _532  and  _535
REMARK  222  A    between atoms: _535  and  _536
REMARK  223  A    between atoms: _541  and  _544
REMARK  224  A    between atoms: _542  and  _551
REMARK  225  A    between atoms: _544  and  _545
REMARK  226  A    between atoms: _545  and  _546
REMARK  227  A    between atoms: _551  and  _553
REMARK  228  A    between atoms: _553  and  _554
REMARK  229  A    between atoms: _553  and  _556
REMARK  230  A    between atoms: _556  and  _557
REMARK  231  A    between atoms: _557  and  _558
REMARK  232  A    between atoms: _558  and  _559
REMARK  233  A    between atoms: _568  and  _570
REMARK  234  A    between atoms: _570  and  _571
REMARK  235  A    between atoms: _570  and  _573
REMARK  236  A    between atoms: _573  and  _574
REMARK  237  A    between atoms: _577  and  _579
REMARK  238  A    between atoms: _579  and  _580
REMARK  239  A    between atoms: _579  and  _582
REMARK  240  A    between atoms: _582  and  _583
REMARK  241  A    between atoms: _586  and  _588
REMARK  242  A    between atoms: _588  and  _589
REMARK  243  A    between atoms: _592  and  _593
REMARK  244  A    between atoms: _598  and  _600
REMARK  245  A    between atoms: _600  and  _601
REMARK  246  A    between atoms: _600  and  _603
REMARK  247  A    between atoms: _606  and  _608
REMARK  248  A    between atoms: _608  and  _609
REMARK  249  A    between atoms: _608  and  _611
REMARK  250  A    between atoms: _611  and  _612
REMARK  251  A    between atoms: _612  and  _613
REMARK  252  A    between atoms: _618  and  _620
REMARK  253  A    between atoms: _620  and  _621
REMARK  254  A    between atoms: _620  and  _623
REMARK  255  A    between atoms: _623  and  _624
REMARK  256  A    between atoms: _627  and  _629
REMARK  257  A    between atoms: _629  and  _630
REMARK  258  A    between atoms: _629  and  _632
REMARK  259  A    between atoms: _632  and  _633
REMARK  260  A    between atoms: _633  and  _634
REMARK  261  A    between atoms: _634  and  _635
REMARK  262  A    between atoms: _635  and  _636
REMARK  263  A    between atoms: _640  and  _642
REMARK  264  A    between atoms: _642  and  _643
REMARK  265  A    between atoms: _645  and  _647
REMARK  266  A    between atoms: _647  and  _648
REMARK  267  A    between atoms: _647  and  _650
REMARK  268  A    between atoms: _650  and  _651
REMARK                            x       y       z     vdW  Elec       q    Type
REMARK                         _______ _______ _______ _____ _____    ______ ____
ROOT
ATOM      1  O   HOH     1      32.596 -27.376  12.935  0.00  0.00    +0.000 OA
ENDROOT
TORSDOF 0
REMARK  Name = ../refined-set-2016/1rp7/1rp7_pocket.pdb
REMARK  268 active torsions:
REMARK  status: ('A' for Active; 'I' for Inactive)
REMARK    1  A    between atoms: _1  and  _3
REMARK    2  A    between atoms: _3  and  _4
REMARK    3  A    between atoms: _7  and  _9
REMARK    4  A    between atoms: _9  and  _10
REMARK    5  A    between atoms: _9  and  _12
REMARK    6  A    between atoms: _12  and  _13
REMARK    7  A    between atoms: _16  and  _18
REMARK    8  A    between atoms: _18  and  _19
REMARK    9  A    between atoms: _18  and  _21
REMARK   10  A    between atoms: _21  and  _22
REMARK   11  A    between atoms: _22  and  _23
REMARK   12  A    between atoms: _26  and  _28
REMARK   13  A    between atoms: _28  and  _29
REMARK   14  A    between atoms: _28  and  _31
REMARK   15  A    between atoms: _31  and  _32
REMARK   16  A    between atoms: _35  and  _37
REMARK   17  A    between atoms: _37  and  _38
REMARK   18  A    between atoms: _40  and  _42
REMARK   19  A    between atoms: _42  and  _43
REMARK   20  A    between atoms: _42  and  _45
REMARK   21  A    between atoms: _45  and  _46
REMARK   22  A    between atoms: _49  and  _51
REMARK   23  A    between atoms: _51  and  _52
REMARK   24  A    between atoms: _51  and  _54
REMARK   25  A    between atoms: _54  and  _55
REMARK   26  A    between atoms: _60  and  _62
REMARK   27  A    between atoms: _62  and  _63
REMARK   28  A    between atoms: _62  and  _65
REMARK   29  A    between atoms: _65  and  _66
REMARK   30  A    between atoms: _66  and  _67
REMARK   31  A    between atoms: _70  and  _72
REMARK   32  A    between atoms: _72  and  _73
REMARK   33  A    between atoms: _72  and  _75
REMARK   34  A    between atoms: _75  and  _76
REMARK   35  A    between atoms: _79  and  _81
REMARK   36  A    between atoms: _81  and  _82
REMARK   37  A    between atoms: _81  and  _84
REMARK   38  A    between atoms: _84  and  _85
REMARK   39  A    between atoms: _90  and  _91
REMARK   40  A    between atoms: _93  and  _95
REMARK   41  A    between atoms: _95  and  _96
REMARK   42  A    between atoms: _95  and  _98
REMARK   43  A    between atoms: _98  and  _99
REMARK   44  A    between atoms: _104  and  _105
REMARK   45  A    between atoms: _107  and  _109
REMARK   46  A    between atoms: _109  and  _110
REMARK   47  A    between atoms: _109  and  _112
REMARK   48  A    between atoms: _112  and  _113
REMARK   49  A    between atoms: _118  and  _119
REMARK   50  A    between atoms: _121  and  _123
REMARK   51  A    between atoms: _123  and  _124
REMARK   52  A    between atoms: _123  and  _126
REMARK   53  A    between atoms: _126  and  _127
REMARK   54  A    between atoms: _127  and  _128
REMARK   55  A    between atoms: _130  and  _132
REMARK   56  A    between atoms: _132  and  _133
REMARK   57  A    between atoms: _132  and  _135
REMARK   58  A    between atoms: _135  and  _136
REMARK   59  A    between atoms: _142  and  _144
REMARK   60  A    between atoms: _144  and  _145
REMARK   61  A    between atoms: _144  and  _147
REMARK   62  A    between atoms: _147  and  _148
REMARK   63  A    between atoms: _148  and  _149
REMARK   64  A    between atoms: _149  and  _150
REMARK   65  A    between atoms: _159  and  _161
REMARK   66  A    between atoms: _161  and  _162
REMARK   67  A    between atoms: _161  and  _164
REMARK   68  A    between atoms: _164  and  _165
REMARK   69  A    between atoms: _165  and  _166
REMARK   70  A    between atoms: _169  and  _171
REMARK   71  A    between atoms: _171  and  _172
REMARK   72  A    between atoms: _171  and  _174
REMARK   73  A    between atoms: _174  and  _175
REMARK   74  A    between atoms: _175  and  _176
REMARK   75  A    between atoms: _181  and  _183
REMARK   76  A    between atoms: _183  and  _184
REMARK   77  A    between atoms: _183  and  _186
REMARK   78  A    between atoms: _186  and  _187
REMARK   79  A    between atoms: _192  and  _194
REMARK   80  A    between atoms: _194  and  _195
REMARK   81  A    between atoms: _194  and  _197
REMARK   82  A    between atoms: _197  and  _198
REMARK   83  A    between atoms: _203  and  _205
REMARK   84  A    between atoms: _205  and  _206
REMARK   85  A    between atoms: _205  and  _208
REMARK   86  A    between atoms: _208  and  _209
REMARK   87  A    between atoms: _209  and  _210
REMARK   88  A    between atoms: _212  and  _214
REMARK   89  A    between atoms: _214  and  _215
REMARK   90  A    between atoms: _218  and  _220
REMARK   91  A    between atoms: _220  and  _221
REMARK   92  A    between atoms: _220  and  _223
REMARK   93  A    between atoms: _223  and  _224
REMARK   94  A    between atoms: _226  and  _228
REMARK   95  A    between atoms: _228  and  _229
REMARK   96  A    between atoms: _228  and  _231
REMARK   97  A    between atoms: _231  and  _232
REMARK   98  A    between atoms: _238  and  _240
REMARK   99  A    between atoms: _240  and  _241
REMARK  100  A    between atoms: _240  and  _243
REMARK  101  A    between atoms: _243  and  _244
REMARK  102  A    between atoms: _244  and  _245
REMARK  103  A    between atoms: _250  and  _252
REMARK  104  A    between atoms: _252  and  _253
REMARK  105  A    between atoms: _252  and  _255
REMARK  106  A    between atoms: _255  and  _256
REMARK  107  A    between atoms: _258  and  _260
REMARK  108  A    between atoms: _260  and  _261
REMARK  109  A    between atoms: _260  and  _263
REMARK  110  A    between atoms: _263  and  _264
REMARK  111  A    between atoms: _266  and  _268
REMARK  112  A    between atoms: _268  and  _269
REMARK  113  A    between atoms: _268  and  _271
REMARK  114  A    between atoms: _271  and  _272
REMARK  115  A    between atoms: _277  and  _278
REMARK  116  A    between atoms: _280  and  _282
REMARK  117  A    between atoms: _282  and  _283
REMARK  118  A    between atoms: _282  and  _285
REMARK  119  A    between atoms: _285  and  _286
REMARK  120  A    between atoms: _286  and  _287
REMARK  121  A    between atoms: _292  and  _294
REMARK  122  A    between atoms: _294  and  _295
REMARK  123  A    between atoms: _297  and  _299
REMARK  124  A    between atoms: _299  and  _300
REMARK  125  A    between atoms: _299  and  _302
REMARK  126  A    between atoms: _302  and  _303
REMARK  127  A    between atoms: _308  and  _310
REMARK  128  A    between atoms: _310  and  _311
REMARK  129  A    between atoms: _310  and  _313
REMARK  130  A    between atoms: _313  and  _314
REMARK  131  A    between atoms: _317  and  _319
REMARK  132  A    between atoms: _319  and  _320
REMARK  133  A    between atoms: _319  and  _322
REMARK  134  A    between atoms: _322  and  _323
REMARK  135  A    between atoms: _323  and  _324
REMARK  136  A    between atoms: _324  and  _325
REMARK  137  A    between atoms: _334  and  _336
REMARK  138  A    between atoms: _336  and  _337
REMARK  139  A    between atoms: _336  and  _339
REMARK  140  A    between atoms: _339  and  _340
REMARK  141  A    between atoms: _345  and  _346
REMARK  142  A    between atoms: _348  and  _350
REMARK  143  A    between atoms: _350  and  _351
REMARK  144  A    between atoms: _350  and  _353
REMARK  145  A    between atoms: _353  and  _354
REMARK  146  A    between atoms: _357  and  _359
REMARK  147  A    between atoms: _359  and  _360
REMARK  148  A    between atoms: _359  and  _362
REMARK  149  A    between atoms: _365  and  _367
REMARK  150  A    between atoms: _367  and  _368
REMARK  151  A    between atoms: _367  and  _370
REMARK  152  A    between atoms: _370  and  _371
REMARK  153  A    between atoms: _373  and  _375
REMARK  154  A    between atoms: _375  and  _376
REMARK  155  A    between atoms: _375  and  _378
REMARK  156  A    between atoms: _378  and  _379
REMARK  157  A    between atoms: _379  and  _380
REMARK  158  A    between atoms: _382  and  _384
REMARK  159  A    between atoms: _384  and  _385
REMARK  160  A    between atoms: _387  and  _389
REMARK  161  A    between atoms: _389  and  _390
REMARK  162  A    between atoms: _389  and  _392
REMARK  163  A    between atoms: _392  and  _393
REMARK  164  A    between atoms: _396  and  _398
REMARK  165  A    between atoms: _398  and  _399
REMARK  166  A    between atoms: _398  and  _401
REMARK  167  A    between atoms: _401  and  _402
REMARK  168  A    between atoms: _408  and  _410
REMARK  169  A    between atoms: _410  and  _411
REMARK  170  A    between atoms: _410  and  _413
REMARK  171  A    between atoms: _413  and  _414
REMARK  172  A    between atoms: _417  and  _419
REMARK  173  A    between atoms: _419  and  _420
REMARK  174  A    between atoms: _422  and  _424
REMARK  175  A    between atoms: _424  and  _425
REMARK  176  A    between atoms: _424  and  _427
REMARK  177  A    between atoms: _427  and  _428
REMARK  178  A    between atoms: _431  and  _433
REMARK  179  A    between atoms: _433  and  _434
REMARK  180  A    between atoms: _436  and  _438
REMARK  181  A    between atoms: _438  and  _439
REMARK  182  A    between atoms: _438  and  _441
REMARK  183  A    between atoms: _441  and  _442
REMARK  184  A    between atoms: _442  and  _443
REMARK  185  A    between atoms: _446  and  _448
REMARK  186  A    between atoms: _448  and  _449
REMARK  187  A    between atoms: _448  and  _451
REMARK  188  A    between atoms: _451  and  _452
REMARK  189  A    between atoms: _452  and  _453
REMARK  190  A    between atoms: _455  and  _457
REMARK  191  A    between atoms: _457  and  _458
REMARK  192  A    between atoms: _457  and  _460
REMARK  193  A    between atoms: _460  and  _461
REMARK  194  A    between atoms: _464  and  _466
REMARK  195  A    between atoms: _466  and  _467
REMARK  196  A    between atoms: _466  and  _469
REMARK  197  A    between atoms: _469  and  _470
REMARK  198  A    between atoms: _470  and  _471
REMARK  199  A    between atoms: _474  and  _476
REMARK  200  A    between atoms: _476  and  _477
REMARK  201  A    between atoms: _476  and  _479
REMARK  202  A    between atoms: _479  and  _480
REMARK  203  A    between atoms: _480  and  _481
REMARK  204  A    between atoms: _484  and  _486
REMARK  205  A    between atoms: _486  and  _487
REMARK  206  A    between atoms: _486  and  _489
REMARK  207  A    between atoms: _489  and  _490
REMARK  208  A    between atoms: _492  and  _494
REMARK  209  A    between atoms: _494  and  _495
REMARK  210  A    between atoms: _494  and  _497
REMARK  211  A    between atoms: _497  and  _498
REMARK  212  A    between atoms: _501  and  _503
REMARK  213  A    between atoms: _503  and  _504
REMARK  214  A    between atoms: _503  and  _506
REMARK  215  A    between atoms: _506  and  _507
REMARK  216  A    between atoms: _512  and  _514
REMARK  217  A    between atoms: _514  and  _515
REMARK  218  A    between atoms: _514  and  _517
REMARK  219  A    between atoms: _519  and  _521
REMARK  220  A    between atoms: _525  and  _527
REMARK  221  A    between atoms: _532  and  _535
REMARK  222  A    between atoms: _535  and  _536
REMARK  223  A    between atoms: _541  and  _544
REMARK  224  A    between atoms: _542  and  _551
REMARK  225  A    between atoms: _544  and  _545
REMARK  226  A    between atoms: _545  and  _546
REMARK  227  A    between atoms: _551  and  _553
REMARK  228  A    between atoms: _553  and  _554
REMARK  229  A    between atoms: _553  and  _556
REMARK  230  A    between atoms: _556  and  _557
REMARK  231  A    between atoms: _557  and  _558
REMARK  232  A    between atoms: _558  and  _559
REMARK  233  A    between atoms: _568  and  _570
REMARK  234  A    between atoms: _570  and  _571
REMARK  235  A    between atoms: _570  and  _573
REMARK  236  A    between atoms: _573  and  _574
REMARK  237  A    between atoms: _577  and  _579
REMARK  238  A    between atoms: _579  and  _580
REMARK  239  A    between atoms: _579  and  _582
REMARK  240  A    between atoms: _582  and  _583
REMARK  241  A    between atoms: _586  and  _588
REMARK  242  A    between atoms: _588  and  _589
REMARK  243  A    between atoms: _592  and  _593
REMARK  244  A    between atoms: _598  and  _600
REMARK  245  A    between atoms: _600  and  _601
REMARK  246  A    between atoms: _600  and  _603
REMARK  247  A    between atoms: _606  and  _608
REMARK  248  A    between atoms: _608  and  _609
REMARK  249  A    between atoms: _608  and  _611
REMARK  250  A    between atoms: _611  and  _612
REMARK  251  A    between atoms: _612  and  _613
REMARK  252  A    between atoms: _618  and  _620
REMARK  253  A    between atoms: _620  and  _621
REMARK  254  A    between atoms: _620  and  _623
REMARK  255  A    between atoms: _623  and  _624
REMARK  256  A    between atoms: _627  and  _629
REMARK  257  A    between atoms: _629  and  _630
REMARK  258  A    between atoms: _629  and  _632
REMARK  259  A    between atoms: _632  and  _633
REMARK  260  A    between atoms: _633  and  _634
REMARK  261  A    between atoms: _634  and  _635
REMARK  262  A    between atoms: _635  and  _636
REMARK  263  A    between atoms: _640  and  _642
REMARK  264  A    between atoms: _642  and  _643
REMARK  265  A    between atoms: _645  and  _647
REMARK  266  A    between atoms: _647  and  _648
REMARK  267  A    between atoms: _647  and  _650
REMARK  268  A    between atoms: _650  and  _651
REMARK                            x       y       z     vdW  Elec       q    Type
REMARK                         _______ _______ _______ _____ _____    ______ ____
ROOT
ATOM      1  O   HOH     1      27.516 -35.249   3.998  0.00  0.00    +0.000 OA
ENDROOT
TORSDOF 0
REMARK  Name = ../refined-set-2016/1rp7/1rp7_pocket.pdb
REMARK  268 active torsions:
REMARK  status: ('A' for Active; 'I' for Inactive)
REMARK    1  A    between atoms: _1  and  _3
REMARK    2  A    between atoms: _3  and  _4
REMARK    3  A    between atoms: _7  and  _9
REMARK    4  A    between atoms: _9  and  _10
REMARK    5  A    between atoms: _9  and  _12
REMARK    6  A    between atoms: _12  and  _13
REMARK    7  A    between atoms: _16  and  _18
REMARK    8  A    between atoms: _18  and  _19
REMARK    9  A    between atoms: _18  and  _21
REMARK   10  A    between atoms: _21  and  _22
REMARK   11  A    between atoms: _22  and  _23
REMARK   12  A    between atoms: _26  and  _28
REMARK   13  A    between atoms: _28  and  _29
REMARK   14  A    between atoms: _28  and  _31
REMARK   15  A    between atoms: _31  and  _32
REMARK   16  A    between atoms: _35  and  _37
REMARK   17  A    between atoms: _37  and  _38
REMARK   18  A    between atoms: _40  and  _42
REMARK   19  A    between atoms: _42  and  _43
REMARK   20  A    between atoms: _42  and  _45
REMARK   21  A    between atoms: _45  and  _46
REMARK   22  A    between atoms: _49  and  _51
REMARK   23  A    between atoms: _51  and  _52
REMARK   24  A    between atoms: _51  and  _54
REMARK   25  A    between atoms: _54  and  _55
REMARK   26  A    between atoms: _60  and  _62
REMARK   27  A    between atoms: _62  and  _63
REMARK   28  A    between atoms: _62  and  _65
REMARK   29  A    between atoms: _65  and  _66
REMARK   30  A    between atoms: _66  and  _67
REMARK   31  A    between atoms: _70  and  _72
REMARK   32  A    between atoms: _72  and  _73
REMARK   33  A    between atoms: _72  and  _75
REMARK   34  A    between atoms: _75  and  _76
REMARK   35  A    between atoms: _79  and  _81
REMARK   36  A    between atoms: _81  and  _82
REMARK   37  A    between atoms: _81  and  _84
REMARK   38  A    between atoms: _84  and  _85
REMARK   39  A    between atoms: _90  and  _91
REMARK   40  A    between atoms: _93  and  _95
REMARK   41  A    between atoms: _95  and  _96
REMARK   42  A    between atoms: _95  and  _98
REMARK   43  A    between atoms: _98  and  _99
REMARK   44  A    between atoms: _104  and  _105
REMARK   45  A    between atoms: _107  and  _109
REMARK   46  A    between atoms: _109  and  _110
REMARK   47  A    between atoms: _109  and  _112
REMARK   48  A    between atoms: _112  and  _113
REMARK   49  A    between atoms: _118  and  _119
REMARK   50  A    between atoms: _121  and  _123
REMARK   51  A    between atoms: _123  and  _124
REMARK   52  A    between atoms: _123  and  _126
REMARK   53  A    between atoms: _126  and  _127
REMARK   54  A    between atoms: _127  and  _128
REMARK   55  A    between atoms: _130  and  _132
REMARK   56  A    between atoms: _132  and  _133
REMARK   57  A    between atoms: _132  and  _135
REMARK   58  A    between atoms: _135  and  _136
REMARK   59  A    between atoms: _142  and  _144
REMARK   60  A    between atoms: _144  and  _145
REMARK   61  A    between atoms: _144  and  _147
REMARK   62  A    between atoms: _147  and  _148
REMARK   63  A    between atoms: _148  and  _149
REMARK   64  A    between atoms: _149  and  _150
REMARK   65  A    between atoms: _159  and  _161
REMARK   66  A    between atoms: _161  and  _162
REMARK   67  A    between atoms: _161  and  _164
REMARK   68  A    between atoms: _164  and  _165
REMARK   69  A    between atoms: _165  and  _166
REMARK   70  A    between atoms: _169  and  _171
REMARK   71  A    between atoms: _171  and  _172
REMARK   72  A    between atoms: _171  and  _174
REMARK   73  A    between atoms: _174  and  _175
REMARK   74  A    between atoms: _175  and  _176
REMARK   75  A    between atoms: _181  and  _183
REMARK   76  A    between atoms: _183  and  _184
REMARK   77  A    between atoms: _183  and  _186
REMARK   78  A    between atoms: _186  and  _187
REMARK   79  A    between atoms: _192  and  _194
REMARK   80  A    between atoms: _194  and  _195
REMARK   81  A    between atoms: _194  and  _197
REMARK   82  A    between atoms: _197  and  _198
REMARK   83  A    between atoms: _203  and  _205
REMARK   84  A    between atoms: _205  and  _206
REMARK   85  A    between atoms: _205  and  _208
REMARK   86  A    between atoms: _208  and  _209
REMARK   87  A    between atoms: _209  and  _210
REMARK   88  A    between atoms: _212  and  _214
REMARK   89  A    between atoms: _214  and  _215
REMARK   90  A    between atoms: _218  and  _220
REMARK   91  A    between atoms: _220  and  _221
REMARK   92  A    between atoms: _220  and  _223
REMARK   93  A    between atoms: _223  and  _224
REMARK   94  A    between atoms: _226  and  _228
REMARK   95  A    between atoms: _228  and  _229
REMARK   96  A    between atoms: _228  and  _231
REMARK   97  A    between atoms: _231  and  _232
REMARK   98  A    between atoms: _238  and  _240
REMARK   99  A    between atoms: _240  and  _241
REMARK  100  A    between atoms: _240  and  _243
REMARK  101  A    between atoms: _243  and  _244
REMARK  102  A    between atoms: _244  and  _245
REMARK  103  A    between atoms: _250  and  _252
REMARK  104  A    between atoms: _252  and  _253
REMARK  105  A    between atoms: _252  and  _255
REMARK  106  A    between atoms: _255  and  _256
REMARK  107  A    between atoms: _258  and  _260
REMARK  108  A    between atoms: _260  and  _261
REMARK  109  A    between atoms: _260  and  _263
REMARK  110  A    between atoms: _263  and  _264
REMARK  111  A    between atoms: _266  and  _268
REMARK  112  A    between atoms: _268  and  _269
REMARK  113  A    between atoms: _268  and  _271
REMARK  114  A    between atoms: _271  and  _272
REMARK  115  A    between atoms: _277  and  _278
REMARK  116  A    between atoms: _280  and  _282
REMARK  117  A    between atoms: _282  and  _283
REMARK  118  A    between atoms: _282  and  _285
REMARK  119  A    between atoms: _285  and  _286
REMARK  120  A    between atoms: _286  and  _287
REMARK  121  A    between atoms: _292  and  _294
REMARK  122  A    between atoms: _294  and  _295
REMARK  123  A    between atoms: _297  and  _299
REMARK  124  A    between atoms: _299  and  _300
REMARK  125  A    between atoms: _299  and  _302
REMARK  126  A    between atoms: _302  and  _303
REMARK  127  A    between atoms: _308  and  _310
REMARK  128  A    between atoms: _310  and  _311
REMARK  129  A    between atoms: _310  and  _313
REMARK  130  A    between atoms: _313  and  _314
REMARK  131  A    between atoms: _317  and  _319
REMARK  132  A    between atoms: _319  and  _320
REMARK  133  A    between atoms: _319  and  _322
REMARK  134  A    between atoms: _322  and  _323
REMARK  135  A    between atoms: _323  and  _324
REMARK  136  A    between atoms: _324  and  _325
REMARK  137  A    between atoms: _334  and  _336
REMARK  138  A    between atoms: _336  and  _337
REMARK  139  A    between atoms: _336  and  _339
REMARK  140  A    between atoms: _339  and  _340
REMARK  141  A    between atoms: _345  and  _346
REMARK  142  A    between atoms: _348  and  _350
REMARK  143  A    between atoms: _350  and  _351
REMARK  144  A    between atoms: _350  and  _353
REMARK  145  A    between atoms: _353  and  _354
REMARK  146  A    between atoms: _357  and  _359
REMARK  147  A    between atoms: _359  and  _360
REMARK  148  A    between atoms: _359  and  _362
REMARK  149  A    between atoms: _365  and  _367
REMARK  150  A    between atoms: _367  and  _368
REMARK  151  A    between atoms: _367  and  _370
REMARK  152  A    between atoms: _370  and  _371
REMARK  153  A    between atoms: _373  and  _375
REMARK  154  A    between atoms: _375  and  _376
REMARK  155  A    between atoms: _375  and  _378
REMARK  156  A    between atoms: _378  and  _379
REMARK  157  A    between atoms: _379  and  _380
REMARK  158  A    between atoms: _382  and  _384
REMARK  159  A    between atoms: _384  and  _385
REMARK  160  A    between atoms: _387  and  _389
REMARK  161  A    between atoms: _389  and  _390
REMARK  162  A    between atoms: _389  and  _392
REMARK  163  A    between atoms: _392  and  _393
REMARK  164  A    between atoms: _396  and  _398
REMARK  165  A    between atoms: _398  and  _399
REMARK  166  A    between atoms: _398  and  _401
REMARK  167  A    between atoms: _401  and  _402
REMARK  168  A    between atoms: _408  and  _410
REMARK  169  A    between atoms: _410  and  _411
REMARK  170  A    between atoms: _410  and  _413
REMARK  171  A    between atoms: _413  and  _414
REMARK  172  A    between atoms: _417  and  _419
REMARK  173  A    between atoms: _419  and  _420
REMARK  174  A    between atoms: _422  and  _424
REMARK  175  A    between atoms: _424  and  _425
REMARK  176  A    between atoms: _424  and  _427
REMARK  177  A    between atoms: _427  and  _428
REMARK  178  A    between atoms: _431  and  _433
REMARK  179  A    between atoms: _433  and  _434
REMARK  180  A    between atoms: _436  and  _438
REMARK  181  A    between atoms: _438  and  _439
REMARK  182  A    between atoms: _438  and  _441
REMARK  183  A    between atoms: _441  and  _442
REMARK  184  A    between atoms: _442  and  _443
REMARK  185  A    between atoms: _446  and  _448
REMARK  186  A    between atoms: _448  and  _449
REMARK  187  A    between atoms: _448  and  _451
REMARK  188  A    between atoms: _451  and  _452
REMARK  189  A    between atoms: _452  and  _453
REMARK  190  A    between atoms: _455  and  _457
REMARK  191  A    between atoms: _457  and  _458
REMARK  192  A    between atoms: _457  and  _460
REMARK  193  A    between atoms: _460  and  _461
REMARK  194  A    between atoms: _464  and  _466
REMARK  195  A    between atoms: _466  and  _467
REMARK  196  A    between atoms: _466  and  _469
REMARK  197  A    between atoms: _469  and  _470
REMARK  198  A    between atoms: _470  and  _471
REMARK  199  A    between atoms: _474  and  _476
REMARK  200  A    between atoms: _476  and  _477
REMARK  201  A    between atoms: _476  and  _479
REMARK  202  A    between atoms: _479  and  _480
REMARK  203  A    between atoms: _480  and  _481
REMARK  204  A    between atoms: _484  and  _486
REMARK  205  A    between atoms: _486  and  _487
REMARK  206  A    between atoms: _486  and  _489
REMARK  207  A    between atoms: _489  and  _490
REMARK  208  A    between atoms: _492  and  _494
REMARK  209  A    between atoms: _494  and  _495
REMARK  210  A    between atoms: _494  and  _497
REMARK  211  A    between atoms: _497  and  _498
REMARK  212  A    between atoms: _501  and  _503
REMARK  213  A    between atoms: _503  and  _504
REMARK  214  A    between atoms: _503  and  _506
REMARK  215  A    between atoms: _506  and  _507
REMARK  216  A    between atoms: _512  and  _514
REMARK  217  A    between atoms: _514  and  _515
REMARK  218  A    between atoms: _514  and  _517
REMARK  219  A    between atoms: _519  and  _521
REMARK  220  A    between atoms: _525  and  _527
REMARK  221  A    between atoms: _532  and  _535
REMARK  222  A    between atoms: _535  and  _536
REMARK  223  A    between atoms: _541  and  _544
REMARK  224  A    between atoms: _542  and  _551
REMARK  225  A    between atoms: _544  and  _545
REMARK  226  A    between atoms: _545  and  _546
REMARK  227  A    between atoms: _551  and  _553
REMARK  228  A    between atoms: _553  and  _554
REMARK  229  A    between atoms: _553  and  _556
REMARK  230  A    between atoms: _556  and  _557
REMARK  231  A    between atoms: _557  and  _558
REMARK  232  A    between atoms: _558  and  _559
REMARK  233  A    between atoms: _568  and  _570
REMARK  234  A    between atoms: _570  and  _571
REMARK  235  A    between atoms: _570  and  _573
REMARK  236  A    between atoms: _573  and  _574
REMARK  237  A    between atoms: _577  and  _579
REMARK  238  A    between atoms: _579  and  _580
REMARK  239  A    between atoms: _579  and  _582
REMARK  240  A    between atoms: _582  and  _583
REMARK  241  A    between atoms: _586  and  _588
REMARK  242  A    between atoms: _588  and  _589
REMARK  243  A    between atoms: _592  and  _593
REMARK  244  A    between atoms: _598  and  _600
REMARK  245  A    between atoms: _600  and  _601
REMARK  246  A    between atoms: _600  and  _603
REMARK  247  A    between atoms: _606  and  _608
REMARK  248  A    between atoms: _608  and  _609
REMARK  249  A    between atoms: _608  and  _611
REMARK  250  A    between atoms: _611  and  _612
REMARK  251  A    between atoms: _612  and  _613
REMARK  252  A    between atoms: _618  and  _620
REMARK  253  A    between atoms: _620  and  _621
REMARK  254  A    between atoms: _620  and  _623
REMARK  255  A    between atoms: _623  and  _624
REMARK  256  A    between atoms: _627  and  _629
REMARK  257  A    between atoms: _629  and  _630
REMARK  258  A    between atoms: _629  and  _632
REMARK  259  A    between atoms: _632  and  _633
REMARK  260  A    between atoms: _633  and  _634
REMARK  261  A    between atoms: _634  and  _635
REMARK  262  A    between atoms: _635  and  _636
REMARK  263  A    between atoms: _640  and  _642
REMARK  264  A    between atoms: _642  and  _643
REMARK  265  A    between atoms: _645  and  _647
REMARK  266  A    between atoms: _647  and  _648
REMARK  267  A    between atoms: _647  and  _650
REMARK  268  A    between atoms: _650  and  _651
REMARK                            x       y       z     vdW  Elec       q    Type
REMARK                         _______ _______ _______ _____ _____    ______ ____
ROOT
ATOM      1  O   HOH     1      36.391 -35.808  12.138  0.00  0.00    +0.000 OA
ENDROOT
TORSDOF 0
REMARK  Name = ../refined-set-2016/1rp7/1rp7_pocket.pdb
REMARK  268 active torsions:
REMARK  status: ('A' for Active; 'I' for Inactive)
REMARK    1  A    between atoms: _1  and  _3
REMARK    2  A    between atoms: _3  and  _4
REMARK    3  A    between atoms: _7  and  _9
REMARK    4  A    between atoms: _9  and  _10
REMARK    5  A    between atoms: _9  and  _12
REMARK    6  A    between atoms: _12  and  _13
REMARK    7  A    between atoms: _16  and  _18
REMARK    8  A    between atoms: _18  and  _19
REMARK    9  A    between atoms: _18  and  _21
REMARK   10  A    between atoms: _21  and  _22
REMARK   11  A    between atoms: _22  and  _23
REMARK   12  A    between atoms: _26  and  _28
REMARK   13  A    between atoms: _28  and  _29
REMARK   14  A    between atoms: _28  and  _31
REMARK   15  A    between atoms: _31  and  _32
REMARK   16  A    between atoms: _35  and  _37
REMARK   17  A    between atoms: _37  and  _38
REMARK   18  A    between atoms: _40  and  _42
REMARK   19  A    between atoms: _42  and  _43
REMARK   20  A    between atoms: _42  and  _45
REMARK   21  A    between atoms: _45  and  _46
REMARK   22  A    between atoms: _49  and  _51
REMARK   23  A    between atoms: _51  and  _52
REMARK   24  A    between atoms: _51  and  _54
REMARK   25  A    between atoms: _54  and  _55
REMARK   26  A    between atoms: _60  and  _62
REMARK   27  A    between atoms: _62  and  _63
REMARK   28  A    between atoms: _62  and  _65
REMARK   29  A    between atoms: _65  and  _66
REMARK   30  A    between atoms: _66  and  _67
REMARK   31  A    between atoms: _70  and  _72
REMARK   32  A    between atoms: _72  and  _73
REMARK   33  A    between atoms: _72  and  _75
REMARK   34  A    between atoms: _75  and  _76
REMARK   35  A    between atoms: _79  and  _81
REMARK   36  A    between atoms: _81  and  _82
REMARK   37  A    between atoms: _81  and  _84
REMARK   38  A    between atoms: _84  and  _85
REMARK   39  A    between atoms: _90  and  _91
REMARK   40  A    between atoms: _93  and  _95
REMARK   41  A    between atoms: _95  and  _96
REMARK   42  A    between atoms: _95  and  _98
REMARK   43  A    between atoms: _98  and  _99
REMARK   44  A    between atoms: _104  and  _105
REMARK   45  A    between atoms: _107  and  _109
REMARK   46  A    between atoms: _109  and  _110
REMARK   47  A    between atoms: _109  and  _112
REMARK   48  A    between atoms: _112  and  _113
REMARK   49  A    between atoms: _118  and  _119
REMARK   50  A    between atoms: _121  and  _123
REMARK   51  A    between atoms: _123  and  _124
REMARK   52  A    between atoms: _123  and  _126
REMARK   53  A    between atoms: _126  and  _127
REMARK   54  A    between atoms: _127  and  _128
REMARK   55  A    between atoms: _130  and  _132
REMARK   56  A    between atoms: _132  and  _133
REMARK   57  A    between atoms: _132  and  _135
REMARK   58  A    between atoms: _135  and  _136
REMARK   59  A    between atoms: _142  and  _144
REMARK   60  A    between atoms: _144  and  _145
REMARK   61  A    between atoms: _144  and  _147
REMARK   62  A    between atoms: _147  and  _148
REMARK   63  A    between atoms: _148  and  _149
REMARK   64  A    between atoms: _149  and  _150
REMARK   65  A    between atoms: _159  and  _161
REMARK   66  A    between atoms: _161  and  _162
REMARK   67  A    between atoms: _161  and  _164
REMARK   68  A    between atoms: _164  and  _165
REMARK   69  A    between atoms: _165  and  _166
REMARK   70  A    between atoms: _169  and  _171
REMARK   71  A    between atoms: _171  and  _172
REMARK   72  A    between atoms: _171  and  _174
REMARK   73  A    between atoms: _174  and  _175
REMARK   74  A    between atoms: _175  and  _176
REMARK   75  A    between atoms: _181  and  _183
REMARK   76  A    between atoms: _183  and  _184
REMARK   77  A    between atoms: _183  and  _186
REMARK   78  A    between atoms: _186  and  _187
REMARK   79  A    between atoms: _192  and  _194
REMARK   80  A    between atoms: _194  and  _195
REMARK   81  A    between atoms: _194  and  _197
REMARK   82  A    between atoms: _197  and  _198
REMARK   83  A    between atoms: _203  and  _205
REMARK   84  A    between atoms: _205  and  _206
REMARK   85  A    between atoms: _205  and  _208
REMARK   86  A    between atoms: _208  and  _209
REMARK   87  A    between atoms: _209  and  _210
REMARK   88  A    between atoms: _212  and  _214
REMARK   89  A    between atoms: _214  and  _215
REMARK   90  A    between atoms: _218  and  _220
REMARK   91  A    between atoms: _220  and  _221
REMARK   92  A    between atoms: _220  and  _223
REMARK   93  A    between atoms: _223  and  _224
REMARK   94  A    between atoms: _226  and  _228
REMARK   95  A    between atoms: _228  and  _229
REMARK   96  A    between atoms: _228  and  _231
REMARK   97  A    between atoms: _231  and  _232
REMARK   98  A    between atoms: _238  and  _240
REMARK   99  A    between atoms: _240  and  _241
REMARK  100  A    between atoms: _240  and  _243
REMARK  101  A    between atoms: _243  and  _244
REMARK  102  A    between atoms: _244  and  _245
REMARK  103  A    between atoms: _250  and  _252
REMARK  104  A    between atoms: _252  and  _253
REMARK  105  A    between atoms: _252  and  _255
REMARK  106  A    between atoms: _255  and  _256
REMARK  107  A    between atoms: _258  and  _260
REMARK  108  A    between atoms: _260  and  _261
REMARK  109  A    between atoms: _260  and  _263
REMARK  110  A    between atoms: _263  and  _264
REMARK  111  A    between atoms: _266  and  _268
REMARK  112  A    between atoms: _268  and  _269
REMARK  113  A    between atoms: _268  and  _271
REMARK  114  A    between atoms: _271  and  _272
REMARK  115  A    between atoms: _277  and  _278
REMARK  116  A    between atoms: _280  and  _282
REMARK  117  A    between atoms: _282  and  _283
REMARK  118  A    between atoms: _282  and  _285
REMARK  119  A    between atoms: _285  and  _286
REMARK  120  A    between atoms: _286  and  _287
REMARK  121  A    between atoms: _292  and  _294
REMARK  122  A    between atoms: _294  and  _295
REMARK  123  A    between atoms: _297  and  _299
REMARK  124  A    between atoms: _299  and  _300
REMARK  125  A    between atoms: _299  and  _302
REMARK  126  A    between atoms: _302  and  _303
REMARK  127  A    between atoms: _308  and  _310
REMARK  128  A    between atoms: _310  and  _311
REMARK  129  A    between atoms: _310  and  _313
REMARK  130  A    between atoms: _313  and  _314
REMARK  131  A    between atoms: _317  and  _319
REMARK  132  A    between atoms: _319  and  _320
REMARK  133  A    between atoms: _319  and  _322
REMARK  134  A    between atoms: _322  and  _323
REMARK  135  A    between atoms: _323  and  _324
REMARK  136  A    between atoms: _324  and  _325
REMARK  137  A    between atoms: _334  and  _336
REMARK  138  A    between atoms: _336  and  _337
REMARK  139  A    between atoms: _336  and  _339
REMARK  140  A    between atoms: _339  and  _340
REMARK  141  A    between atoms: _345  and  _346
REMARK  142  A    between atoms: _348  and  _350
REMARK  143  A    between atoms: _350  and  _351
REMARK  144  A    between atoms: _350  and  _353
REMARK  145  A    between atoms: _353  and  _354
REMARK  146  A    between atoms: _357  and  _359
REMARK  147  A    between atoms: _359  and  _360
REMARK  148  A    between atoms: _359  and  _362
REMARK  149  A    between atoms: _365  and  _367
REMARK  150  A    between atoms: _367  and  _368
REMARK  151  A    between atoms: _367  and  _370
REMARK  152  A    between atoms: _370  and  _371
REMARK  153  A    between atoms: _373  and  _375
REMARK  154  A    between atoms: _375  and  _376
REMARK  155  A    between atoms: _375  and  _378
REMARK  156  A    between atoms: _378  and  _379
REMARK  157  A    between atoms: _379  and  _380
REMARK  158  A    between atoms: _382  and  _384
REMARK  159  A    between atoms: _384  and  _385
REMARK  160  A    between atoms: _387  and  _389
REMARK  161  A    between atoms: _389  and  _390
REMARK  162  A    between atoms: _389  and  _392
REMARK  163  A    between atoms: _392  and  _393
REMARK  164  A    between atoms: _396  and  _398
REMARK  165  A    between atoms: _398  and  _399
REMARK  166  A    between atoms: _398  and  _401
REMARK  167  A    between atoms: _401  and  _402
REMARK  168  A    between atoms: _408  and  _410
REMARK  169  A    between atoms: _410  and  _411
REMARK  170  A    between atoms: _410  and  _413
REMARK  171  A    between atoms: _413  and  _414
REMARK  172  A    between atoms: _417  and  _419
REMARK  173  A    between atoms: _419  and  _420
REMARK  174  A    between atoms: _422  and  _424
REMARK  175  A    between atoms: _424  and  _425
REMARK  176  A    between atoms: _424  and  _427
REMARK  177  A    between atoms: _427  and  _428
REMARK  178  A    between atoms: _431  and  _433
REMARK  179  A    between atoms: _433  and  _434
REMARK  180  A    between atoms: _436  and  _438
REMARK  181  A    between atoms: _438  and  _439
REMARK  182  A    between atoms: _438  and  _441
REMARK  183  A    between atoms: _441  and  _442
REMARK  184  A    between atoms: _442  and  _443
REMARK  185  A    between atoms: _446  and  _448
REMARK  186  A    between atoms: _448  and  _449
REMARK  187  A    between atoms: _448  and  _451
REMARK  188  A    between atoms: _451  and  _452
REMARK  189  A    between atoms: _452  and  _453
REMARK  190  A    between atoms: _455  and  _457
REMARK  191  A    between atoms: _457  and  _458
REMARK  192  A    between atoms: _457  and  _460
REMARK  193  A    between atoms: _460  and  _461
REMARK  194  A    between atoms: _464  and  _466
REMARK  195  A    between atoms: _466  and  _467
REMARK  196  A    between atoms: _466  and  _469
REMARK  197  A    between atoms: _469  and  _470
REMARK  198  A    between atoms: _470  and  _471
REMARK  199  A    between atoms: _474  and  _476
REMARK  200  A    between atoms: _476  and  _477
REMARK  201  A    between atoms: _476  and  _479
REMARK  202  A    between atoms: _479  and  _480
REMARK  203  A    between atoms: _480  and  _481
REMARK  204  A    between atoms: _484  and  _486
REMARK  205  A    between atoms: _486  and  _487
REMARK  206  A    between atoms: _486  and  _489
REMARK  207  A    between atoms: _489  and  _490
REMARK  208  A    between atoms: _492  and  _494
REMARK  209  A    between atoms: _494  and  _495
REMARK  210  A    between atoms: _494  and  _497
REMARK  211  A    between atoms: _497  and  _498
REMARK  212  A    between atoms: _501  and  _503
REMARK  213  A    between atoms: _503  and  _504
REMARK  214  A    between atoms: _503  and  _506
REMARK  215  A    between atoms: _506  and  _507
REMARK  216  A    between atoms: _512  and  _514
REMARK  217  A    between atoms: _514  and  _515
REMARK  218  A    between atoms: _514  and  _517
REMARK  219  A    between atoms: _519  and  _521
REMARK  220  A    between atoms: _525  and  _527
REMARK  221  A    between atoms: _532  and  _535
REMARK  222  A    between atoms: _535  and  _536
REMARK  223  A    between atoms: _541  and  _544
REMARK  224  A    between atoms: _542  and  _551
REMARK  225  A    between atoms: _544  and  _545
REMARK  226  A    between atoms: _545  and  _546
REMARK  227  A    between atoms: _551  and  _553
REMARK  228  A    between atoms: _553  and  _554
REMARK  229  A    between atoms: _553  and  _556
REMARK  230  A    between atoms: _556  and  _557
REMARK  231  A    between atoms: _557  and  _558
REMARK  232  A    between atoms: _558  and  _559
REMARK  233  A    between atoms: _568  and  _570
REMARK  234  A    between atoms: _570  and  _571
REMARK  235  A    between atoms: _570  and  _573
REMARK  236  A    between atoms: _573  and  _574
REMARK  237  A    between atoms: _577  and  _579
REMARK  238  A    between atoms: _579  and  _580
REMARK  239  A    between atoms: _579  and  _582
REMARK  240  A    between atoms: _582  and  _583
REMARK  241  A    between atoms: _586  and  _588
REMARK  242  A    between atoms: _588  and  _589
REMARK  243  A    between atoms: _592  and  _593
REMARK  244  A    between atoms: _598  and  _600
REMARK  245  A    between atoms: _600  and  _601
REMARK  246  A    between atoms: _600  and  _603
REMARK  247  A    between atoms: _606  and  _608
REMARK  248  A    between atoms: _608  and  _609
REMARK  249  A    between atoms: _608  and  _611
REMARK  250  A    between atoms: _611  and  _612
REMARK  251  A    between atoms: _612  and  _613
REMARK  252  A    between atoms: _618  and  _620
REMARK  253  A    between atoms: _620  and  _621
REMARK  254  A    between atoms: _620  and  _623
REMARK  255  A    between atoms: _623  and  _624
REMARK  256  A    between atoms: _627  and  _629
REMARK  257  A    between atoms: _629  and  _630
REMARK  258  A    between atoms: _629  and  _632
REMARK  259  A    between atoms: _632  and  _633
REMARK  260  A    between atoms: _633  and  _634
REMARK  261  A    between atoms: _634  and  _635
REMARK  262  A    between atoms: _635  and  _636
REMARK  263  A    between atoms: _640  and  _642
REMARK  264  A    between atoms: _642  and  _643
REMARK  265  A    between atoms: _645  and  _647
REMARK  266  A    between atoms: _647  and  _648
REMARK  267  A    between atoms: _647  and  _650
REMARK  268  A    between atoms: _650  and  _651
REMARK                            x       y       z     vdW  Elec       q    Type
REMARK                         _______ _______ _______ _____ _____    ______ ____
ROOT
ATOM      1  O   HOH     1      24.738 -31.686   1.928  0.00  0.00    +0.000 OA
ENDROOT
TORSDOF 0
REMARK  Name = ../refined-set-2016/1rp7/1rp7_pocket.pdb
REMARK  268 active torsions:
REMARK  status: ('A' for Active; 'I' for Inactive)
REMARK    1  A    between atoms: _1  and  _3
REMARK    2  A    between atoms: _3  and  _4
REMARK    3  A    between atoms: _7  and  _9
REMARK    4  A    between atoms: _9  and  _10
REMARK    5  A    between atoms: _9  and  _12
REMARK    6  A    between atoms: _12  and  _13
REMARK    7  A    between atoms: _16  and  _18
REMARK    8  A    between atoms: _18  and  _19
REMARK    9  A    between atoms: _18  and  _21
REMARK   10  A    between atoms: _21  and  _22
REMARK   11  A    between atoms: _22  and  _23
REMARK   12  A    between atoms: _26  and  _28
REMARK   13  A    between atoms: _28  and  _29
REMARK   14  A    between atoms: _28  and  _31
REMARK   15  A    between atoms: _31  and  _32
REMARK   16  A    between atoms: _35  and  _37
REMARK   17  A    between atoms: _37  and  _38
REMARK   18  A    between atoms: _40  and  _42
REMARK   19  A    between atoms: _42  and  _43
REMARK   20  A    between atoms: _42  and  _45
REMARK   21  A    between atoms: _45  and  _46
REMARK   22  A    between atoms: _49  and  _51
REMARK   23  A    between atoms: _51  and  _52
REMARK   24  A    between atoms: _51  and  _54
REMARK   25  A    between atoms: _54  and  _55
REMARK   26  A    between atoms: _60  and  _62
REMARK   27  A    between atoms: _62  and  _63
REMARK   28  A    between atoms: _62  and  _65
REMARK   29  A    between atoms: _65  and  _66
REMARK   30  A    between atoms: _66  and  _67
REMARK   31  A    between atoms: _70  and  _72
REMARK   32  A    between atoms: _72  and  _73
REMARK   33  A    between atoms: _72  and  _75
REMARK   34  A    between atoms: _75  and  _76
REMARK   35  A    between atoms: _79  and  _81
REMARK   36  A    between atoms: _81  and  _82
REMARK   37  A    between atoms: _81  and  _84
REMARK   38  A    between atoms: _84  and  _85
REMARK   39  A    between atoms: _90  and  _91
REMARK   40  A    between atoms: _93  and  _95
REMARK   41  A    between atoms: _95  and  _96
REMARK   42  A    between atoms: _95  and  _98
REMARK   43  A    between atoms: _98  and  _99
REMARK   44  A    between atoms: _104  and  _105
REMARK   45  A    between atoms: _107  and  _109
REMARK   46  A    between atoms: _109  and  _110
REMARK   47  A    between atoms: _109  and  _112
REMARK   48  A    between atoms: _112  and  _113
REMARK   49  A    between atoms: _118  and  _119
REMARK   50  A    between atoms: _121  and  _123
REMARK   51  A    between atoms: _123  and  _124
REMARK   52  A    between atoms: _123  and  _126
REMARK   53  A    between atoms: _126  and  _127
REMARK   54  A    between atoms: _127  and  _128
REMARK   55  A    between atoms: _130  and  _132
REMARK   56  A    between atoms: _132  and  _133
REMARK   57  A    between atoms: _132  and  _135
REMARK   58  A    between atoms: _135  and  _136
REMARK   59  A    between atoms: _142  and  _144
REMARK   60  A    between atoms: _144  and  _145
REMARK   61  A    between atoms: _144  and  _147
REMARK   62  A    between atoms: _147  and  _148
REMARK   63  A    between atoms: _148  and  _149
REMARK   64  A    between atoms: _149  and  _150
REMARK   65  A    between atoms: _159  and  _161
REMARK   66  A    between atoms: _161  and  _162
REMARK   67  A    between atoms: _161  and  _164
REMARK   68  A    between atoms: _164  and  _165
REMARK   69  A    between atoms: _165  and  _166
REMARK   70  A    between atoms: _169  and  _171
REMARK   71  A    between atoms: _171  and  _172
REMARK   72  A    between atoms: _171  and  _174
REMARK   73  A    between atoms: _174  and  _175
REMARK   74  A    between atoms: _175  and  _176
REMARK   75  A    between atoms: _181  and  _183
REMARK   76  A    between atoms: _183  and  _184
REMARK   77  A    between atoms: _183  and  _186
REMARK   78  A    between atoms: _186  and  _187
REMARK   79  A    between atoms: _192  and  _194
REMARK   80  A    between atoms: _194  and  _195
REMARK   81  A    between atoms: _194  and  _197
REMARK   82  A    between atoms: _197  and  _198
REMARK   83  A    between atoms: _203  and  _205
REMARK   84  A    between atoms: _205  and  _206
REMARK   85  A    between atoms: _205  and  _208
REMARK   86  A    between atoms: _208  and  _209
REMARK   87  A    between atoms: _209  and  _210
REMARK   88  A    between atoms: _212  and  _214
REMARK   89  A    between atoms: _214  and  _215
REMARK   90  A    between atoms: _218  and  _220
REMARK   91  A    between atoms: _220  and  _221
REMARK   92  A    between atoms: _220  and  _223
REMARK   93  A    between atoms: _223  and  _224
REMARK   94  A    between atoms: _226  and  _228
REMARK   95  A    between atoms: _228  and  _229
REMARK   96  A    between atoms: _228  and  _231
REMARK   97  A    between atoms: _231  and  _232
REMARK   98  A    between atoms: _238  and  _240
REMARK   99  A    between atoms: _240  and  _241
REMARK  100  A    between atoms: _240  and  _243
REMARK  101  A    between atoms: _243  and  _244
REMARK  102  A    between atoms: _244  and  _245
REMARK  103  A    between atoms: _250  and  _252
REMARK  104  A    between atoms: _252  and  _253
REMARK  105  A    between atoms: _252  and  _255
REMARK  106  A    between atoms: _255  and  _256
REMARK  107  A    between atoms: _258  and  _260
REMARK  108  A    between atoms: _260  and  _261
REMARK  109  A    between atoms: _260  and  _263
REMARK  110  A    between atoms: _263  and  _264
REMARK  111  A    between atoms: _266  and  _268
REMARK  112  A    between atoms: _268  and  _269
REMARK  113  A    between atoms: _268  and  _271
REMARK  114  A    between atoms: _271  and  _272
REMARK  115  A    between atoms: _277  and  _278
REMARK  116  A    between atoms: _280  and  _282
REMARK  117  A    between atoms: _282  and  _283
REMARK  118  A    between atoms: _282  and  _285
REMARK  119  A    between atoms: _285  and  _286
REMARK  120  A    between atoms: _286  and  _287
REMARK  121  A    between atoms: _292  and  _294
REMARK  122  A    between atoms: _294  and  _295
REMARK  123  A    between atoms: _297  and  _299
REMARK  124  A    between atoms: _299  and  _300
REMARK  125  A    between atoms: _299  and  _302
REMARK  126  A    between atoms: _302  and  _303
REMARK  127  A    between atoms: _308  and  _310
REMARK  128  A    between atoms: _310  and  _311
REMARK  129  A    between atoms: _310  and  _313
REMARK  130  A    between atoms: _313  and  _314
REMARK  131  A    between atoms: _317  and  _319
REMARK  132  A    between atoms: _319  and  _320
REMARK  133  A    between atoms: _319  and  _322
REMARK  134  A    between atoms: _322  and  _323
REMARK  135  A    between atoms: _323  and  _324
REMARK  136  A    between atoms: _324  and  _325
REMARK  137  A    between atoms: _334  and  _336
REMARK  138  A    between atoms: _336  and  _337
REMARK  139  A    between atoms: _336  and  _339
REMARK  140  A    between atoms: _339  and  _340
REMARK  141  A    between atoms: _345  and  _346
REMARK  142  A    between atoms: _348  and  _350
REMARK  143  A    between atoms: _350  and  _351
REMARK  144  A    between atoms: _350  and  _353
REMARK  145  A    between atoms: _353  and  _354
REMARK  146  A    between atoms: _357  and  _359
REMARK  147  A    between atoms: _359  and  _360
REMARK  148  A    between atoms: _359  and  _362
REMARK  149  A    between atoms: _365  and  _367
REMARK  150  A    between atoms: _367  and  _368
REMARK  151  A    between atoms: _367  and  _370
REMARK  152  A    between atoms: _370  and  _371
REMARK  153  A    between atoms: _373  and  _375
REMARK  154  A    between atoms: _375  and  _376
REMARK  155  A    between atoms: _375  and  _378
REMARK  156  A    between atoms: _378  and  _379
REMARK  157  A    between atoms: _379  and  _380
REMARK  158  A    between atoms: _382  and  _384
REMARK  159  A    between atoms: _384  and  _385
REMARK  160  A    between atoms: _387  and  _389
REMARK  161  A    between atoms: _389  and  _390
REMARK  162  A    between atoms: _389  and  _392
REMARK  163  A    between atoms: _392  and  _393
REMARK  164  A    between atoms: _396  and  _398
REMARK  165  A    between atoms: _398  and  _399
REMARK  166  A    between atoms: _398  and  _401
REMARK  167  A    between atoms: _401  and  _402
REMARK  168  A    between atoms: _408  and  _410
REMARK  169  A    between atoms: _410  and  _411
REMARK  170  A    between atoms: _410  and  _413
REMARK  171  A    between atoms: _413  and  _414
REMARK  172  A    between atoms: _417  and  _419
REMARK  173  A    between atoms: _419  and  _420
REMARK  174  A    between atoms: _422  and  _424
REMARK  175  A    between atoms: _424  and  _425
REMARK  176  A    between atoms: _424  and  _427
REMARK  177  A    between atoms: _427  and  _428
REMARK  178  A    between atoms: _431  and  _433
REMARK  179  A    between atoms: _433  and  _434
REMARK  180  A    between atoms: _436  and  _438
REMARK  181  A    between atoms: _438  and  _439
REMARK  182  A    between atoms: _438  and  _441
REMARK  183  A    between atoms: _441  and  _442
REMARK  184  A    between atoms: _442  and  _443
REMARK  185  A    between atoms: _446  and  _448
REMARK  186  A    between atoms: _448  and  _449
REMARK  187  A    between atoms: _448  and  _451
REMARK  188  A    between atoms: _451  and  _452
REMARK  189  A    between atoms: _452  and  _453
REMARK  190  A    between atoms: _455  and  _457
REMARK  191  A    between atoms: _457  and  _458
REMARK  192  A    between atoms: _457  and  _460
REMARK  193  A    between atoms: _460  and  _461
REMARK  194  A    between atoms: _464  and  _466
REMARK  195  A    between atoms: _466  and  _467
REMARK  196  A    between atoms: _466  and  _469
REMARK  197  A    between atoms: _469  and  _470
REMARK  198  A    between atoms: _470  and  _471
REMARK  199  A    between atoms: _474  and  _476
REMARK  200  A    between atoms: _476  and  _477
REMARK  201  A    between atoms: _476  and  _479
REMARK  202  A    between atoms: _479  and  _480
REMARK  203  A    between atoms: _480  and  _481
REMARK  204  A    between atoms: _484  and  _486
REMARK  205  A    between atoms: _486  and  _487
REMARK  206  A    between atoms: _486  and  _489
REMARK  207  A    between atoms: _489  and  _490
REMARK  208  A    between atoms: _492  and  _494
REMARK  209  A    between atoms: _494  and  _495
REMARK  210  A    between atoms: _494  and  _497
REMARK  211  A    between atoms: _497  and  _498
REMARK  212  A    between atoms: _501  and  _503
REMARK  213  A    between atoms: _503  and  _504
REMARK  214  A    between atoms: _503  and  _506
REMARK  215  A    between atoms: _506  and  _507
REMARK  216  A    between atoms: _512  and  _514
REMARK  217  A    between atoms: _514  and  _515
REMARK  218  A    between atoms: _514  and  _517
REMARK  219  A    between atoms: _519  and  _521
REMARK  220  A    between atoms: _525  and  _527
REMARK  221  A    between atoms: _532  and  _535
REMARK  222  A    between atoms: _535  and  _536
REMARK  223  A    between atoms: _541  and  _544
REMARK  224  A    between atoms: _542  and  _551
REMARK  225  A    between atoms: _544  and  _545
REMARK  226  A    between atoms: _545  and  _546
REMARK  227  A    between atoms: _551  and  _553
REMARK  228  A    between atoms: _553  and  _554
REMARK  229  A    between atoms: _553  and  _556
REMARK  230  A    between atoms: _556  and  _557
REMARK  231  A    between atoms: _557  and  _558
REMARK  232  A    between atoms: _558  and  _559
REMARK  233  A    between atoms: _568  and  _570
REMARK  234  A    between atoms: _570  and  _571
REMARK  235  A    between atoms: _570  and  _573
REMARK  236  A    between atoms: _573  and  _574
REMARK  237  A    between atoms: _577  and  _579
REMARK  238  A    between atoms: _579  and  _580
REMARK  239  A    between atoms: _579  and  _582
REMARK  240  A    between atoms: _582  and  _583
REMARK  241  A    between atoms: _586  and  _588
REMARK  242  A    between atoms: _588  and  _589
REMARK  243  A    between atoms: _592  and  _593
REMARK  244  A    between atoms: _598  and  _600
REMARK  245  A    between atoms: _600  and  _601
REMARK  246  A    between atoms: _600  and  _603
REMARK  247  A    between atoms: _606  and  _608
REMARK  248  A    between atoms: _608  and  _609
REMARK  249  A    between atoms: _608  and  _611
REMARK  250  A    between atoms: _611  and  _612
REMARK  251  A    between atoms: _612  and  _613
REMARK  252  A    between atoms: _618  and  _620
REMARK  253  A    between atoms: _620  and  _621
REMARK  254  A    between atoms: _620  and  _623
REMARK  255  A    between atoms: _623  and  _624
REMARK  256  A    between atoms: _627  and  _629
REMARK  257  A    between atoms: _629  and  _630
REMARK  258  A    between atoms: _629  and  _632
REMARK  259  A    between atoms: _632  and  _633
REMARK  260  A    between atoms: _633  and  _634
REMARK  261  A    between atoms: _634  and  _635
REMARK  262  A    between atoms: _635  and  _636
REMARK  263  A    between atoms: _640  and  _642
REMARK  264  A    between atoms: _642  and  _643
REMARK  265  A    between atoms: _645  and  _647
REMARK  266  A    between atoms: _647  and  _648
REMARK  267  A    between atoms: _647  and  _650
REMARK  268  A    between atoms: _650  and  _651
REMARK                            x       y       z     vdW  Elec       q    Type
REMARK                         _______ _______ _______ _____ _____    ______ ____
ROOT
ATOM      1  O   HOH     1      25.901 -32.714   4.050  0.00  0.00    +0.000 OA
ENDROOT
TORSDOF 0
REMARK  Name = ../refined-set-2016/1rp7/1rp7_pocket.pdb
REMARK  268 active torsions:
REMARK  status: ('A' for Active; 'I' for Inactive)
REMARK    1  A    between atoms: _1  and  _3
REMARK    2  A    between atoms: _3  and  _4
REMARK    3  A    between atoms: _7  and  _9
REMARK    4  A    between atoms: _9  and  _10
REMARK    5  A    between atoms: _9  and  _12
REMARK    6  A    between atoms: _12  and  _13
REMARK    7  A    between atoms: _16  and  _18
REMARK    8  A    between atoms: _18  and  _19
REMARK    9  A    between atoms: _18  and  _21
REMARK   10  A    between atoms: _21  and  _22
REMARK   11  A    between atoms: _22  and  _23
REMARK   12  A    between atoms: _26  and  _28
REMARK   13  A    between atoms: _28  and  _29
REMARK   14  A    between atoms: _28  and  _31
REMARK   15  A    between atoms: _31  and  _32
REMARK   16  A    between atoms: _35  and  _37
REMARK   17  A    between atoms: _37  and  _38
REMARK   18  A    between atoms: _40  and  _42
REMARK   19  A    between atoms: _42  and  _43
REMARK   20  A    between atoms: _42  and  _45
REMARK   21  A    between atoms: _45  and  _46
REMARK   22  A    between atoms: _49  and  _51
REMARK   23  A    between atoms: _51  and  _52
REMARK   24  A    between atoms: _51  and  _54
REMARK   25  A    between atoms: _54  and  _55
REMARK   26  A    between atoms: _60  and  _62
REMARK   27  A    between atoms: _62  and  _63
REMARK   28  A    between atoms: _62  and  _65
REMARK   29  A    between atoms: _65  and  _66
REMARK   30  A    between atoms: _66  and  _67
REMARK   31  A    between atoms: _70  and  _72
REMARK   32  A    between atoms: _72  and  _73
REMARK   33  A    between atoms: _72  and  _75
REMARK   34  A    between atoms: _75  and  _76
REMARK   35  A    between atoms: _79  and  _81
REMARK   36  A    between atoms: _81  and  _82
REMARK   37  A    between atoms: _81  and  _84
REMARK   38  A    between atoms: _84  and  _85
REMARK   39  A    between atoms: _90  and  _91
REMARK   40  A    between atoms: _93  and  _95
REMARK   41  A    between atoms: _95  and  _96
REMARK   42  A    between atoms: _95  and  _98
REMARK   43  A    between atoms: _98  and  _99
REMARK   44  A    between atoms: _104  and  _105
REMARK   45  A    between atoms: _107  and  _109
REMARK   46  A    between atoms: _109  and  _110
REMARK   47  A    between atoms: _109  and  _112
REMARK   48  A    between atoms: _112  and  _113
REMARK   49  A    between atoms: _118  and  _119
REMARK   50  A    between atoms: _121  and  _123
REMARK   51  A    between atoms: _123  and  _124
REMARK   52  A    between atoms: _123  and  _126
REMARK   53  A    between atoms: _126  and  _127
REMARK   54  A    between atoms: _127  and  _128
REMARK   55  A    between atoms: _130  and  _132
REMARK   56  A    between atoms: _132  and  _133
REMARK   57  A    between atoms: _132  and  _135
REMARK   58  A    between atoms: _135  and  _136
REMARK   59  A    between atoms: _142  and  _144
REMARK   60  A    between atoms: _144  and  _145
REMARK   61  A    between atoms: _144  and  _147
REMARK   62  A    between atoms: _147  and  _148
REMARK   63  A    between atoms: _148  and  _149
REMARK   64  A    between atoms: _149  and  _150
REMARK   65  A    between atoms: _159  and  _161
REMARK   66  A    between atoms: _161  and  _162
REMARK   67  A    between atoms: _161  and  _164
REMARK   68  A    between atoms: _164  and  _165
REMARK   69  A    between atoms: _165  and  _166
REMARK   70  A    between atoms: _169  and  _171
REMARK   71  A    between atoms: _171  and  _172
REMARK   72  A    between atoms: _171  and  _174
REMARK   73  A    between atoms: _174  and  _175
REMARK   74  A    between atoms: _175  and  _176
REMARK   75  A    between atoms: _181  and  _183
REMARK   76  A    between atoms: _183  and  _184
REMARK   77  A    between atoms: _183  and  _186
REMARK   78  A    between atoms: _186  and  _187
REMARK   79  A    between atoms: _192  and  _194
REMARK   80  A    between atoms: _194  and  _195
REMARK   81  A    between atoms: _194  and  _197
REMARK   82  A    between atoms: _197  and  _198
REMARK   83  A    between atoms: _203  and  _205
REMARK   84  A    between atoms: _205  and  _206
REMARK   85  A    between atoms: _205  and  _208
REMARK   86  A    between atoms: _208  and  _209
REMARK   87  A    between atoms: _209  and  _210
REMARK   88  A    between atoms: _212  and  _214
REMARK   89  A    between atoms: _214  and  _215
REMARK   90  A    between atoms: _218  and  _220
REMARK   91  A    between atoms: _220  and  _221
REMARK   92  A    between atoms: _220  and  _223
REMARK   93  A    between atoms: _223  and  _224
REMARK   94  A    between atoms: _226  and  _228
REMARK   95  A    between atoms: _228  and  _229
REMARK   96  A    between atoms: _228  and  _231
REMARK   97  A    between atoms: _231  and  _232
REMARK   98  A    between atoms: _238  and  _240
REMARK   99  A    between atoms: _240  and  _241
REMARK  100  A    between atoms: _240  and  _243
REMARK  101  A    between atoms: _243  and  _244
REMARK  102  A    between atoms: _244  and  _245
REMARK  103  A    between atoms: _250  and  _252
REMARK  104  A    between atoms: _252  and  _253
REMARK  105  A    between atoms: _252  and  _255
REMARK  106  A    between atoms: _255  and  _256
REMARK  107  A    between atoms: _258  and  _260
REMARK  108  A    between atoms: _260  and  _261
REMARK  109  A    between atoms: _260  and  _263
REMARK  110  A    between atoms: _263  and  _264
REMARK  111  A    between atoms: _266  and  _268
REMARK  112  A    between atoms: _268  and  _269
REMARK  113  A    between atoms: _268  and  _271
REMARK  114  A    between atoms: _271  and  _272
REMARK  115  A    between atoms: _277  and  _278
REMARK  116  A    between atoms: _280  and  _282
REMARK  117  A    between atoms: _282  and  _283
REMARK  118  A    between atoms: _282  and  _285
REMARK  119  A    between atoms: _285  and  _286
REMARK  120  A    between atoms: _286  and  _287
REMARK  121  A    between atoms: _292  and  _294
REMARK  122  A    between atoms: _294  and  _295
REMARK  123  A    between atoms: _297  and  _299
REMARK  124  A    between atoms: _299  and  _300
REMARK  125  A    between atoms: _299  and  _302
REMARK  126  A    between atoms: _302  and  _303
REMARK  127  A    between atoms: _308  and  _310
REMARK  128  A    between atoms: _310  and  _311
REMARK  129  A    between atoms: _310  and  _313
REMARK  130  A    between atoms: _313  and  _314
REMARK  131  A    between atoms: _317  and  _319
REMARK  132  A    between atoms: _319  and  _320
REMARK  133  A    between atoms: _319  and  _322
REMARK  134  A    between atoms: _322  and  _323
REMARK  135  A    between atoms: _323  and  _324
REMARK  136  A    between atoms: _324  and  _325
REMARK  137  A    between atoms: _334  and  _336
REMARK  138  A    between atoms: _336  and  _337
REMARK  139  A    between atoms: _336  and  _339
REMARK  140  A    between atoms: _339  and  _340
REMARK  141  A    between atoms: _345  and  _346
REMARK  142  A    between atoms: _348  and  _350
REMARK  143  A    between atoms: _350  and  _351
REMARK  144  A    between atoms: _350  and  _353
REMARK  145  A    between atoms: _353  and  _354
REMARK  146  A    between atoms: _357  and  _359
REMARK  147  A    between atoms: _359  and  _360
REMARK  148  A    between atoms: _359  and  _362
REMARK  149  A    between atoms: _365  and  _367
REMARK  150  A    between atoms: _367  and  _368
REMARK  151  A    between atoms: _367  and  _370
REMARK  152  A    between atoms: _370  and  _371
REMARK  153  A    between atoms: _373  and  _375
REMARK  154  A    between atoms: _375  and  _376
REMARK  155  A    between atoms: _375  and  _378
REMARK  156  A    between atoms: _378  and  _379
REMARK  157  A    between atoms: _379  and  _380
REMARK  158  A    between atoms: _382  and  _384
REMARK  159  A    between atoms: _384  and  _385
REMARK  160  A    between atoms: _387  and  _389
REMARK  161  A    between atoms: _389  and  _390
REMARK  162  A    between atoms: _389  and  _392
REMARK  163  A    between atoms: _392  and  _393
REMARK  164  A    between atoms: _396  and  _398
REMARK  165  A    between atoms: _398  and  _399
REMARK  166  A    between atoms: _398  and  _401
REMARK  167  A    between atoms: _401  and  _402
REMARK  168  A    between atoms: _408  and  _410
REMARK  169  A    between atoms: _410  and  _411
REMARK  170  A    between atoms: _410  and  _413
REMARK  171  A    between atoms: _413  and  _414
REMARK  172  A    between atoms: _417  and  _419
REMARK  173  A    between atoms: _419  and  _420
REMARK  174  A    between atoms: _422  and  _424
REMARK  175  A    between atoms: _424  and  _425
REMARK  176  A    between atoms: _424  and  _427
REMARK  177  A    between atoms: _427  and  _428
REMARK  178  A    between atoms: _431  and  _433
REMARK  179  A    between atoms: _433  and  _434
REMARK  180  A    between atoms: _436  and  _438
REMARK  181  A    between atoms: _438  and  _439
REMARK  182  A    between atoms: _438  and  _441
REMARK  183  A    between atoms: _441  and  _442
REMARK  184  A    between atoms: _442  and  _443
REMARK  185  A    between atoms: _446  and  _448
REMARK  186  A    between atoms: _448  and  _449
REMARK  187  A    between atoms: _448  and  _451
REMARK  188  A    between atoms: _451  and  _452
REMARK  189  A    between atoms: _452  and  _453
REMARK  190  A    between atoms: _455  and  _457
REMARK  191  A    between atoms: _457  and  _458
REMARK  192  A    between atoms: _457  and  _460
REMARK  193  A    between atoms: _460  and  _461
REMARK  194  A    between atoms: _464  and  _466
REMARK  195  A    between atoms: _466  and  _467
REMARK  196  A    between atoms: _466  and  _469
REMARK  197  A    between atoms: _469  and  _470
REMARK  198  A    between atoms: _470  and  _471
REMARK  199  A    between atoms: _474  and  _476
REMARK  200  A    between atoms: _476  and  _477
REMARK  201  A    between atoms: _476  and  _479
REMARK  202  A    between atoms: _479  and  _480
REMARK  203  A    between atoms: _480  and  _481
REMARK  204  A    between atoms: _484  and  _486
REMARK  205  A    between atoms: _486  and  _487
REMARK  206  A    between atoms: _486  and  _489
REMARK  207  A    between atoms: _489  and  _490
REMARK  208  A    between atoms: _492  and  _494
REMARK  209  A    between atoms: _494  and  _495
REMARK  210  A    between atoms: _494  and  _497
REMARK  211  A    between atoms: _497  and  _498
REMARK  212  A    between atoms: _501  and  _503
REMARK  213  A    between atoms: _503  and  _504
REMARK  214  A    between atoms: _503  and  _506
REMARK  215  A    between atoms: _506  and  _507
REMARK  216  A    between atoms: _512  and  _514
REMARK  217  A    between atoms: _514  and  _515
REMARK  218  A    between atoms: _514  and  _517
REMARK  219  A    between atoms: _519  and  _521
REMARK  220  A    between atoms: _525  and  _527
REMARK  221  A    between atoms: _532  and  _535
REMARK  222  A    between atoms: _535  and  _536
REMARK  223  A    between atoms: _541  and  _544
REMARK  224  A    between atoms: _542  and  _551
REMARK  225  A    between atoms: _544  and  _545
REMARK  226  A    between atoms: _545  and  _546
REMARK  227  A    between atoms: _551  and  _553
REMARK  228  A    between atoms: _553  and  _554
REMARK  229  A    between atoms: _553  and  _556
REMARK  230  A    between atoms: _556  and  _557
REMARK  231  A    between atoms: _557  and  _558
REMARK  232  A    between atoms: _558  and  _559
REMARK  233  A    between atoms: _568  and  _570
REMARK  234  A    between atoms: _570  and  _571
REMARK  235  A    between atoms: _570  and  _573
REMARK  236  A    between atoms: _573  and  _574
REMARK  237  A    between atoms: _577  and  _579
REMARK  238  A    between atoms: _579  and  _580
REMARK  239  A    between atoms: _579  and  _582
REMARK  240  A    between atoms: _582  and  _583
REMARK  241  A    between atoms: _586  and  _588
REMARK  242  A    between atoms: _588  and  _589
REMARK  243  A    between atoms: _592  and  _593
REMARK  244  A    between atoms: _598  and  _600
REMARK  245  A    between atoms: _600  and  _601
REMARK  246  A    between atoms: _600  and  _603
REMARK  247  A    between atoms: _606  and  _608
REMARK  248  A    between atoms: _608  and  _609
REMARK  249  A    between atoms: _608  and  _611
REMARK  250  A    between atoms: _611  and  _612
REMARK  251  A    between atoms: _612  and  _613
REMARK  252  A    between atoms: _618  and  _620
REMARK  253  A    between atoms: _620  and  _621
REMARK  254  A    between atoms: _620  and  _623
REMARK  255  A    between atoms: _623  and  _624
REMARK  256  A    between atoms: _627  and  _629
REMARK  257  A    between atoms: _629  and  _630
REMARK  258  A    between atoms: _629  and  _632
REMARK  259  A    between atoms: _632  and  _633
REMARK  260  A    between atoms: _633  and  _634
REMARK  261  A    between atoms: _634  and  _635
REMARK  262  A    between atoms: _635  and  _636
REMARK  263  A    between atoms: _640  and  _642
REMARK  264  A    between atoms: _642  and  _643
REMARK  265  A    between atoms: _645  and  _647
REMARK  266  A    between atoms: _647  and  _648
REMARK  267  A    between atoms: _647  and  _650
REMARK  268  A    between atoms: _650  and  _651
REMARK                            x       y       z     vdW  Elec       q    Type
REMARK                         _______ _______ _______ _____ _____    ______ ____
ROOT
ATOM      1  O   HOH     1      19.825 -33.347  18.628  0.00  0.00    +0.000 OA
ENDROOT
TORSDOF 0
REMARK  Name = ../refined-set-2016/1rp7/1rp7_pocket.pdb
REMARK  268 active torsions:
REMARK  status: ('A' for Active; 'I' for Inactive)
REMARK    1  A    between atoms: _1  and  _3
REMARK    2  A    between atoms: _3  and  _4
REMARK    3  A    between atoms: _7  and  _9
REMARK    4  A    between atoms: _9  and  _10
REMARK    5  A    between atoms: _9  and  _12
REMARK    6  A    between atoms: _12  and  _13
REMARK    7  A    between atoms: _16  and  _18
REMARK    8  A    between atoms: _18  and  _19
REMARK    9  A    between atoms: _18  and  _21
REMARK   10  A    between atoms: _21  and  _22
REMARK   11  A    between atoms: _22  and  _23
REMARK   12  A    between atoms: _26  and  _28
REMARK   13  A    between atoms: _28  and  _29
REMARK   14  A    between atoms: _28  and  _31
REMARK   15  A    between atoms: _31  and  _32
REMARK   16  A    between atoms: _35  and  _37
REMARK   17  A    between atoms: _37  and  _38
REMARK   18  A    between atoms: _40  and  _42
REMARK   19  A    between atoms: _42  and  _43
REMARK   20  A    between atoms: _42  and  _45
REMARK   21  A    between atoms: _45  and  _46
REMARK   22  A    between atoms: _49  and  _51
REMARK   23  A    between atoms: _51  and  _52
REMARK   24  A    between atoms: _51  and  _54
REMARK   25  A    between atoms: _54  and  _55
REMARK   26  A    between atoms: _60  and  _62
REMARK   27  A    between atoms: _62  and  _63
REMARK   28  A    between atoms: _62  and  _65
REMARK   29  A    between atoms: _65  and  _66
REMARK   30  A    between atoms: _66  and  _67
REMARK   31  A    between atoms: _70  and  _72
REMARK   32  A    between atoms: _72  and  _73
REMARK   33  A    between atoms: _72  and  _75
REMARK   34  A    between atoms: _75  and  _76
REMARK   35  A    between atoms: _79  and  _81
REMARK   36  A    between atoms: _81  and  _82
REMARK   37  A    between atoms: _81  and  _84
REMARK   38  A    between atoms: _84  and  _85
REMARK   39  A    between atoms: _90  and  _91
REMARK   40  A    between atoms: _93  and  _95
REMARK   41  A    between atoms: _95  and  _96
REMARK   42  A    between atoms: _95  and  _98
REMARK   43  A    between atoms: _98  and  _99
REMARK   44  A    between atoms: _104  and  _105
REMARK   45  A    between atoms: _107  and  _109
REMARK   46  A    between atoms: _109  and  _110
REMARK   47  A    between atoms: _109  and  _112
REMARK   48  A    between atoms: _112  and  _113
REMARK   49  A    between atoms: _118  and  _119
REMARK   50  A    between atoms: _121  and  _123
REMARK   51  A    between atoms: _123  and  _124
REMARK   52  A    between atoms: _123  and  _126
REMARK   53  A    between atoms: _126  and  _127
REMARK   54  A    between atoms: _127  and  _128
REMARK   55  A    between atoms: _130  and  _132
REMARK   56  A    between atoms: _132  and  _133
REMARK   57  A    between atoms: _132  and  _135
REMARK   58  A    between atoms: _135  and  _136
REMARK   59  A    between atoms: _142  and  _144
REMARK   60  A    between atoms: _144  and  _145
REMARK   61  A    between atoms: _144  and  _147
REMARK   62  A    between atoms: _147  and  _148
REMARK   63  A    between atoms: _148  and  _149
REMARK   64  A    between atoms: _149  and  _150
REMARK   65  A    between atoms: _159  and  _161
REMARK   66  A    between atoms: _161  and  _162
REMARK   67  A    between atoms: _161  and  _164
REMARK   68  A    between atoms: _164  and  _165
REMARK   69  A    between atoms: _165  and  _166
REMARK   70  A    between atoms: _169  and  _171
REMARK   71  A    between atoms: _171  and  _172
REMARK   72  A    between atoms: _171  and  _174
REMARK   73  A    between atoms: _174  and  _175
REMARK   74  A    between atoms: _175  and  _176
REMARK   75  A    between atoms: _181  and  _183
REMARK   76  A    between atoms: _183  and  _184
REMARK   77  A    between atoms: _183  and  _186
REMARK   78  A    between atoms: _186  and  _187
REMARK   79  A    between atoms: _192  and  _194
REMARK   80  A    between atoms: _194  and  _195
REMARK   81  A    between atoms: _194  and  _197
REMARK   82  A    between atoms: _197  and  _198
REMARK   83  A    between atoms: _203  and  _205
REMARK   84  A    between atoms: _205  and  _206
REMARK   85  A    between atoms: _205  and  _208
REMARK   86  A    between atoms: _208  and  _209
REMARK   87  A    between atoms: _209  and  _210
REMARK   88  A    between atoms: _212  and  _214
REMARK   89  A    between atoms: _214  and  _215
REMARK   90  A    between atoms: _218  and  _220
REMARK   91  A    between atoms: _220  and  _221
REMARK   92  A    between atoms: _220  and  _223
REMARK   93  A    between atoms: _223  and  _224
REMARK   94  A    between atoms: _226  and  _228
REMARK   95  A    between atoms: _228  and  _229
REMARK   96  A    between atoms: _228  and  _231
REMARK   97  A    between atoms: _231  and  _232
REMARK   98  A    between atoms: _238  and  _240
REMARK   99  A    between atoms: _240  and  _241
REMARK  100  A    between atoms: _240  and  _243
REMARK  101  A    between atoms: _243  and  _244
REMARK  102  A    between atoms: _244  and  _245
REMARK  103  A    between atoms: _250  and  _252
REMARK  104  A    between atoms: _252  and  _253
REMARK  105  A    between atoms: _252  and  _255
REMARK  106  A    between atoms: _255  and  _256
REMARK  107  A    between atoms: _258  and  _260
REMARK  108  A    between atoms: _260  and  _261
REMARK  109  A    between atoms: _260  and  _263
REMARK  110  A    between atoms: _263  and  _264
REMARK  111  A    between atoms: _266  and  _268
REMARK  112  A    between atoms: _268  and  _269
REMARK  113  A    between atoms: _268  and  _271
REMARK  114  A    between atoms: _271  and  _272
REMARK  115  A    between atoms: _277  and  _278
REMARK  116  A    between atoms: _280  and  _282
REMARK  117  A    between atoms: _282  and  _283
REMARK  118  A    between atoms: _282  and  _285
REMARK  119  A    between atoms: _285  and  _286
REMARK  120  A    between atoms: _286  and  _287
REMARK  121  A    between atoms: _292  and  _294
REMARK  122  A    between atoms: _294  and  _295
REMARK  123  A    between atoms: _297  and  _299
REMARK  124  A    between atoms: _299  and  _300
REMARK  125  A    between atoms: _299  and  _302
REMARK  126  A    between atoms: _302  and  _303
REMARK  127  A    between atoms: _308  and  _310
REMARK  128  A    between atoms: _310  and  _311
REMARK  129  A    between atoms: _310  and  _313
REMARK  130  A    between atoms: _313  and  _314
REMARK  131  A    between atoms: _317  and  _319
REMARK  132  A    between atoms: _319  and  _320
REMARK  133  A    between atoms: _319  and  _322
REMARK  134  A    between atoms: _322  and  _323
REMARK  135  A    between atoms: _323  and  _324
REMARK  136  A    between atoms: _324  and  _325
REMARK  137  A    between atoms: _334  and  _336
REMARK  138  A    between atoms: _336  and  _337
REMARK  139  A    between atoms: _336  and  _339
REMARK  140  A    between atoms: _339  and  _340
REMARK  141  A    between atoms: _345  and  _346
REMARK  142  A    between atoms: _348  and  _350
REMARK  143  A    between atoms: _350  and  _351
REMARK  144  A    between atoms: _350  and  _353
REMARK  145  A    between atoms: _353  and  _354
REMARK  146  A    between atoms: _357  and  _359
REMARK  147  A    between atoms: _359  and  _360
REMARK  148  A    between atoms: _359  and  _362
REMARK  149  A    between atoms: _365  and  _367
REMARK  150  A    between atoms: _367  and  _368
REMARK  151  A    between atoms: _367  and  _370
REMARK  152  A    between atoms: _370  and  _371
REMARK  153  A    between atoms: _373  and  _375
REMARK  154  A    between atoms: _375  and  _376
REMARK  155  A    between atoms: _375  and  _378
REMARK  156  A    between atoms: _378  and  _379
REMARK  157  A    between atoms: _379  and  _380
REMARK  158  A    between atoms: _382  and  _384
REMARK  159  A    between atoms: _384  and  _385
REMARK  160  A    between atoms: _387  and  _389
REMARK  161  A    between atoms: _389  and  _390
REMARK  162  A    between atoms: _389  and  _392
REMARK  163  A    between atoms: _392  and  _393
REMARK  164  A    between atoms: _396  and  _398
REMARK  165  A    between atoms: _398  and  _399
REMARK  166  A    between atoms: _398  and  _401
REMARK  167  A    between atoms: _401  and  _402
REMARK  168  A    between atoms: _408  and  _410
REMARK  169  A    between atoms: _410  and  _411
REMARK  170  A    between atoms: _410  and  _413
REMARK  171  A    between atoms: _413  and  _414
REMARK  172  A    between atoms: _417  and  _419
REMARK  173  A    between atoms: _419  and  _420
REMARK  174  A    between atoms: _422  and  _424
REMARK  175  A    between atoms: _424  and  _425
REMARK  176  A    between atoms: _424  and  _427
REMARK  177  A    between atoms: _427  and  _428
REMARK  178  A    between atoms: _431  and  _433
REMARK  179  A    between atoms: _433  and  _434
REMARK  180  A    between atoms: _436  and  _438
REMARK  181  A    between atoms: _438  and  _439
REMARK  182  A    between atoms: _438  and  _441
REMARK  183  A    between atoms: _441  and  _442
REMARK  184  A    between atoms: _442  and  _443
REMARK  185  A    between atoms: _446  and  _448
REMARK  186  A    between atoms: _448  and  _449
REMARK  187  A    between atoms: _448  and  _451
REMARK  188  A    between atoms: _451  and  _452
REMARK  189  A    between atoms: _452  and  _453
REMARK  190  A    between atoms: _455  and  _457
REMARK  191  A    between atoms: _457  and  _458
REMARK  192  A    between atoms: _457  and  _460
REMARK  193  A    between atoms: _460  and  _461
REMARK  194  A    between atoms: _464  and  _466
REMARK  195  A    between atoms: _466  and  _467
REMARK  196  A    between atoms: _466  and  _469
REMARK  197  A    between atoms: _469  and  _470
REMARK  198  A    between atoms: _470  and  _471
REMARK  199  A    between atoms: _474  and  _476
REMARK  200  A    between atoms: _476  and  _477
REMARK  201  A    between atoms: _476  and  _479
REMARK  202  A    between atoms: _479  and  _480
REMARK  203  A    between atoms: _480  and  _481
REMARK  204  A    between atoms: _484  and  _486
REMARK  205  A    between atoms: _486  and  _487
REMARK  206  A    between atoms: _486  and  _489
REMARK  207  A    between atoms: _489  and  _490
REMARK  208  A    between atoms: _492  and  _494
REMARK  209  A    between atoms: _494  and  _495
REMARK  210  A    between atoms: _494  and  _497
REMARK  211  A    between atoms: _497  and  _498
REMARK  212  A    between atoms: _501  and  _503
REMARK  213  A    between atoms: _503  and  _504
REMARK  214  A    between atoms: _503  and  _506
REMARK  215  A    between atoms: _506  and  _507
REMARK  216  A    between atoms: _512  and  _514
REMARK  217  A    between atoms: _514  and  _515
REMARK  218  A    between atoms: _514  and  _517
REMARK  219  A    between atoms: _519  and  _521
REMARK  220  A    between atoms: _525  and  _527
REMARK  221  A    between atoms: _532  and  _535
REMARK  222  A    between atoms: _535  and  _536
REMARK  223  A    between atoms: _541  and  _544
REMARK  224  A    between atoms: _542  and  _551
REMARK  225  A    between atoms: _544  and  _545
REMARK  226  A    between atoms: _545  and  _546
REMARK  227  A    between atoms: _551  and  _553
REMARK  228  A    between atoms: _553  and  _554
REMARK  229  A    between atoms: _553  and  _556
REMARK  230  A    between atoms: _556  and  _557
REMARK  231  A    between atoms: _557  and  _558
REMARK  232  A    between atoms: _558  and  _559
REMARK  233  A    between atoms: _568  and  _570
REMARK  234  A    between atoms: _570  and  _571
REMARK  235  A    between atoms: _570  and  _573
REMARK  236  A    between atoms: _573  and  _574
REMARK  237  A    between atoms: _577  and  _579
REMARK  238  A    between atoms: _579  and  _580
REMARK  239  A    between atoms: _579  and  _582
REMARK  240  A    between atoms: _582  and  _583
REMARK  241  A    between atoms: _586  and  _588
REMARK  242  A    between atoms: _588  and  _589
REMARK  243  A    between atoms: _592  and  _593
REMARK  244  A    between atoms: _598  and  _600
REMARK  245  A    between atoms: _600  and  _601
REMARK  246  A    between atoms: _600  and  _603
REMARK  247  A    between atoms: _606  and  _608
REMARK  248  A    between atoms: _608  and  _609
REMARK  249  A    between atoms: _608  and  _611
REMARK  250  A    between atoms: _611  and  _612
REMARK  251  A    between atoms: _612  and  _613
REMARK  252  A    between atoms: _618  and  _620
REMARK  253  A    between atoms: _620  and  _621
REMARK  254  A    between atoms: _620  and  _623
REMARK  255  A    between atoms: _623  and  _624
REMARK  256  A    between atoms: _627  and  _629
REMARK  257  A    between atoms: _629  and  _630
REMARK  258  A    between atoms: _629  and  _632
REMARK  259  A    between atoms: _632  and  _633
REMARK  260  A    between atoms: _633  and  _634
REMARK  261  A    between atoms: _634  and  _635
REMARK  262  A    between atoms: _635  and  _636
REMARK  263  A    between atoms: _640  and  _642
REMARK  264  A    between atoms: _642  and  _643
REMARK  265  A    between atoms: _645  and  _647
REMARK  266  A    between atoms: _647  and  _648
REMARK  267  A    between atoms: _647  and  _650
REMARK  268  A    between atoms: _650  and  _651
REMARK                            x       y       z     vdW  Elec       q    Type
REMARK                         _______ _______ _______ _____ _____    ______ ____
ROOT
ATOM      1  O   HOH     1      23.673 -32.452  21.768  0.00  0.00    +0.000 OA
ENDROOT
TORSDOF 0
REMARK  Name = ../refined-set-2016/1rp7/1rp7_pocket.pdb
REMARK  268 active torsions:
REMARK  status: ('A' for Active; 'I' for Inactive)
REMARK    1  A    between atoms: _1  and  _3
REMARK    2  A    between atoms: _3  and  _4
REMARK    3  A    between atoms: _7  and  _9
REMARK    4  A    between atoms: _9  and  _10
REMARK    5  A    between atoms: _9  and  _12
REMARK    6  A    between atoms: _12  and  _13
REMARK    7  A    between atoms: _16  and  _18
REMARK    8  A    between atoms: _18  and  _19
REMARK    9  A    between atoms: _18  and  _21
REMARK   10  A    between atoms: _21  and  _22
REMARK   11  A    between atoms: _22  and  _23
REMARK   12  A    between atoms: _26  and  _28
REMARK   13  A    between atoms: _28  and  _29
REMARK   14  A    between atoms: _28  and  _31
REMARK   15  A    between atoms: _31  and  _32
REMARK   16  A    between atoms: _35  and  _37
REMARK   17  A    between atoms: _37  and  _38
REMARK   18  A    between atoms: _40  and  _42
REMARK   19  A    between atoms: _42  and  _43
REMARK   20  A    between atoms: _42  and  _45
REMARK   21  A    between atoms: _45  and  _46
REMARK   22  A    between atoms: _49  and  _51
REMARK   23  A    between atoms: _51  and  _52
REMARK   24  A    between atoms: _51  and  _54
REMARK   25  A    between atoms: _54  and  _55
REMARK   26  A    between atoms: _60  and  _62
REMARK   27  A    between atoms: _62  and  _63
REMARK   28  A    between atoms: _62  and  _65
REMARK   29  A    between atoms: _65  and  _66
REMARK   30  A    between atoms: _66  and  _67
REMARK   31  A    between atoms: _70  and  _72
REMARK   32  A    between atoms: _72  and  _73
REMARK   33  A    between atoms: _72  and  _75
REMARK   34  A    between atoms: _75  and  _76
REMARK   35  A    between atoms: _79  and  _81
REMARK   36  A    between atoms: _81  and  _82
REMARK   37  A    between atoms: _81  and  _84
REMARK   38  A    between atoms: _84  and  _85
REMARK   39  A    between atoms: _90  and  _91
REMARK   40  A    between atoms: _93  and  _95
REMARK   41  A    between atoms: _95  and  _96
REMARK   42  A    between atoms: _95  and  _98
REMARK   43  A    between atoms: _98  and  _99
REMARK   44  A    between atoms: _104  and  _105
REMARK   45  A    between atoms: _107  and  _109
REMARK   46  A    between atoms: _109  and  _110
REMARK   47  A    between atoms: _109  and  _112
REMARK   48  A    between atoms: _112  and  _113
REMARK   49  A    between atoms: _118  and  _119
REMARK   50  A    between atoms: _121  and  _123
REMARK   51  A    between atoms: _123  and  _124
REMARK   52  A    between atoms: _123  and  _126
REMARK   53  A    between atoms: _126  and  _127
REMARK   54  A    between atoms: _127  and  _128
REMARK   55  A    between atoms: _130  and  _132
REMARK   56  A    between atoms: _132  and  _133
REMARK   57  A    between atoms: _132  and  _135
REMARK   58  A    between atoms: _135  and  _136
REMARK   59  A    between atoms: _142  and  _144
REMARK   60  A    between atoms: _144  and  _145
REMARK   61  A    between atoms: _144  and  _147
REMARK   62  A    between atoms: _147  and  _148
REMARK   63  A    between atoms: _148  and  _149
REMARK   64  A    between atoms: _149  and  _150
REMARK   65  A    between atoms: _159  and  _161
REMARK   66  A    between atoms: _161  and  _162
REMARK   67  A    between atoms: _161  and  _164
REMARK   68  A    between atoms: _164  and  _165
REMARK   69  A    between atoms: _165  and  _166
REMARK   70  A    between atoms: _169  and  _171
REMARK   71  A    between atoms: _171  and  _172
REMARK   72  A    between atoms: _171  and  _174
REMARK   73  A    between atoms: _174  and  _175
REMARK   74  A    between atoms: _175  and  _176
REMARK   75  A    between atoms: _181  and  _183
REMARK   76  A    between atoms: _183  and  _184
REMARK   77  A    between atoms: _183  and  _186
REMARK   78  A    between atoms: _186  and  _187
REMARK   79  A    between atoms: _192  and  _194
REMARK   80  A    between atoms: _194  and  _195
REMARK   81  A    between atoms: _194  and  _197
REMARK   82  A    between atoms: _197  and  _198
REMARK   83  A    between atoms: _203  and  _205
REMARK   84  A    between atoms: _205  and  _206
REMARK   85  A    between atoms: _205  and  _208
REMARK   86  A    between atoms: _208  and  _209
REMARK   87  A    between atoms: _209  and  _210
REMARK   88  A    between atoms: _212  and  _214
REMARK   89  A    between atoms: _214  and  _215
REMARK   90  A    between atoms: _218  and  _220
REMARK   91  A    between atoms: _220  and  _221
REMARK   92  A    between atoms: _220  and  _223
REMARK   93  A    between atoms: _223  and  _224
REMARK   94  A    between atoms: _226  and  _228
REMARK   95  A    between atoms: _228  and  _229
REMARK   96  A    between atoms: _228  and  _231
REMARK   97  A    between atoms: _231  and  _232
REMARK   98  A    between atoms: _238  and  _240
REMARK   99  A    between atoms: _240  and  _241
REMARK  100  A    between atoms: _240  and  _243
REMARK  101  A    between atoms: _243  and  _244
REMARK  102  A    between atoms: _244  and  _245
REMARK  103  A    between atoms: _250  and  _252
REMARK  104  A    between atoms: _252  and  _253
REMARK  105  A    between atoms: _252  and  _255
REMARK  106  A    between atoms: _255  and  _256
REMARK  107  A    between atoms: _258  and  _260
REMARK  108  A    between atoms: _260  and  _261
REMARK  109  A    between atoms: _260  and  _263
REMARK  110  A    between atoms: _263  and  _264
REMARK  111  A    between atoms: _266  and  _268
REMARK  112  A    between atoms: _268  and  _269
REMARK  113  A    between atoms: _268  and  _271
REMARK  114  A    between atoms: _271  and  _272
REMARK  115  A    between atoms: _277  and  _278
REMARK  116  A    between atoms: _280  and  _282
REMARK  117  A    between atoms: _282  and  _283
REMARK  118  A    between atoms: _282  and  _285
REMARK  119  A    between atoms: _285  and  _286
REMARK  120  A    between atoms: _286  and  _287
REMARK  121  A    between atoms: _292  and  _294
REMARK  122  A    between atoms: _294  and  _295
REMARK  123  A    between atoms: _297  and  _299
REMARK  124  A    between atoms: _299  and  _300
REMARK  125  A    between atoms: _299  and  _302
REMARK  126  A    between atoms: _302  and  _303
REMARK  127  A    between atoms: _308  and  _310
REMARK  128  A    between atoms: _310  and  _311
REMARK  129  A    between atoms: _310  and  _313
REMARK  130  A    between atoms: _313  and  _314
REMARK  131  A    between atoms: _317  and  _319
REMARK  132  A    between atoms: _319  and  _320
REMARK  133  A    between atoms: _319  and  _322
REMARK  134  A    between atoms: _322  and  _323
REMARK  135  A    between atoms: _323  and  _324
REMARK  136  A    between atoms: _324  and  _325
REMARK  137  A    between atoms: _334  and  _336
REMARK  138  A    between atoms: _336  and  _337
REMARK  139  A    between atoms: _336  and  _339
REMARK  140  A    between atoms: _339  and  _340
REMARK  141  A    between atoms: _345  and  _346
REMARK  142  A    between atoms: _348  and  _350
REMARK  143  A    between atoms: _350  and  _351
REMARK  144  A    between atoms: _350  and  _353
REMARK  145  A    between atoms: _353  and  _354
REMARK  146  A    between atoms: _357  and  _359
REMARK  147  A    between atoms: _359  and  _360
REMARK  148  A    between atoms: _359  and  _362
REMARK  149  A    between atoms: _365  and  _367
REMARK  150  A    between atoms: _367  and  _368
REMARK  151  A    between atoms: _367  and  _370
REMARK  152  A    between atoms: _370  and  _371
REMARK  153  A    between atoms: _373  and  _375
REMARK  154  A    between atoms: _375  and  _376
REMARK  155  A    between atoms: _375  and  _378
REMARK  156  A    between atoms: _378  and  _379
REMARK  157  A    between atoms: _379  and  _380
REMARK  158  A    between atoms: _382  and  _384
REMARK  159  A    between atoms: _384  and  _385
REMARK  160  A    between atoms: _387  and  _389
REMARK  161  A    between atoms: _389  and  _390
REMARK  162  A    between atoms: _389  and  _392
REMARK  163  A    between atoms: _392  and  _393
REMARK  164  A    between atoms: _396  and  _398
REMARK  165  A    between atoms: _398  and  _399
REMARK  166  A    between atoms: _398  and  _401
REMARK  167  A    between atoms: _401  and  _402
REMARK  168  A    between atoms: _408  and  _410
REMARK  169  A    between atoms: _410  and  _411
REMARK  170  A    between atoms: _410  and  _413
REMARK  171  A    between atoms: _413  and  _414
REMARK  172  A    between atoms: _417  and  _419
REMARK  173  A    between atoms: _419  and  _420
REMARK  174  A    between atoms: _422  and  _424
REMARK  175  A    between atoms: _424  and  _425
REMARK  176  A    between atoms: _424  and  _427
REMARK  177  A    between atoms: _427  and  _428
REMARK  178  A    between atoms: _431  and  _433
REMARK  179  A    between atoms: _433  and  _434
REMARK  180  A    between atoms: _436  and  _438
REMARK  181  A    between atoms: _438  and  _439
REMARK  182  A    between atoms: _438  and  _441
REMARK  183  A    between atoms: _441  and  _442
REMARK  184  A    between atoms: _442  and  _443
REMARK  185  A    between atoms: _446  and  _448
REMARK  186  A    between atoms: _448  and  _449
REMARK  187  A    between atoms: _448  and  _451
REMARK  188  A    between atoms: _451  and  _452
REMARK  189  A    between atoms: _452  and  _453
REMARK  190  A    between atoms: _455  and  _457
REMARK  191  A    between atoms: _457  and  _458
REMARK  192  A    between atoms: _457  and  _460
REMARK  193  A    between atoms: _460  and  _461
REMARK  194  A    between atoms: _464  and  _466
REMARK  195  A    between atoms: _466  and  _467
REMARK  196  A    between atoms: _466  and  _469
REMARK  197  A    between atoms: _469  and  _470
REMARK  198  A    between atoms: _470  and  _471
REMARK  199  A    between atoms: _474  and  _476
REMARK  200  A    between atoms: _476  and  _477
REMARK  201  A    between atoms: _476  and  _479
REMARK  202  A    between atoms: _479  and  _480
REMARK  203  A    between atoms: _480  and  _481
REMARK  204  A    between atoms: _484  and  _486
REMARK  205  A    between atoms: _486  and  _487
REMARK  206  A    between atoms: _486  and  _489
REMARK  207  A    between atoms: _489  and  _490
REMARK  208  A    between atoms: _492  and  _494
REMARK  209  A    between atoms: _494  and  _495
REMARK  210  A    between atoms: _494  and  _497
REMARK  211  A    between atoms: _497  and  _498
REMARK  212  A    between atoms: _501  and  _503
REMARK  213  A    between atoms: _503  and  _504
REMARK  214  A    between atoms: _503  and  _506
REMARK  215  A    between atoms: _506  and  _507
REMARK  216  A    between atoms: _512  and  _514
REMARK  217  A    between atoms: _514  and  _515
REMARK  218  A    between atoms: _514  and  _517
REMARK  219  A    between atoms: _519  and  _521
REMARK  220  A    between atoms: _525  and  _527
REMARK  221  A    between atoms: _532  and  _535
REMARK  222  A    between atoms: _535  and  _536
REMARK  223  A    between atoms: _541  and  _544
REMARK  224  A    between atoms: _542  and  _551
REMARK  225  A    between atoms: _544  and  _545
REMARK  226  A    between atoms: _545  and  _546
REMARK  227  A    between atoms: _551  and  _553
REMARK  228  A    between atoms: _553  and  _554
REMARK  229  A    between atoms: _553  and  _556
REMARK  230  A    between atoms: _556  and  _557
REMARK  231  A    between atoms: _557  and  _558
REMARK  232  A    between atoms: _558  and  _559
REMARK  233  A    between atoms: _568  and  _570
REMARK  234  A    between atoms: _570  and  _571
REMARK  235  A    between atoms: _570  and  _573
REMARK  236  A    between atoms: _573  and  _574
REMARK  237  A    between atoms: _577  and  _579
REMARK  238  A    between atoms: _579  and  _580
REMARK  239  A    between atoms: _579  and  _582
REMARK  240  A    between atoms: _582  and  _583
REMARK  241  A    between atoms: _586  and  _588
REMARK  242  A    between atoms: _588  and  _589
REMARK  243  A    between atoms: _592  and  _593
REMARK  244  A    between atoms: _598  and  _600
REMARK  245  A    between atoms: _600  and  _601
REMARK  246  A    between atoms: _600  and  _603
REMARK  247  A    between atoms: _606  and  _608
REMARK  248  A    between atoms: _608  and  _609
REMARK  249  A    between atoms: _608  and  _611
REMARK  250  A    between atoms: _611  and  _612
REMARK  251  A    between atoms: _612  and  _613
REMARK  252  A    between atoms: _618  and  _620
REMARK  253  A    between atoms: _620  and  _621
REMARK  254  A    between atoms: _620  and  _623
REMARK  255  A    between atoms: _623  and  _624
REMARK  256  A    between atoms: _627  and  _629
REMARK  257  A    between atoms: _629  and  _630
REMARK  258  A    between atoms: _629  and  _632
REMARK  259  A    between atoms: _632  and  _633
REMARK  260  A    between atoms: _633  and  _634
REMARK  261  A    between atoms: _634  and  _635
REMARK  262  A    between atoms: _635  and  _636
REMARK  263  A    between atoms: _640  and  _642
REMARK  264  A    between atoms: _642  and  _643
REMARK  265  A    between atoms: _645  and  _647
REMARK  266  A    between atoms: _647  and  _648
REMARK  267  A    between atoms: _647  and  _650
REMARK  268  A    between atoms: _650  and  _651
REMARK                            x       y       z     vdW  Elec       q    Type
REMARK                         _______ _______ _______ _____ _____    ______ ____
ROOT
ATOM      1  O   HOH     1      24.243 -35.995  16.269  0.00  0.00    +0.000 OA
ENDROOT
TORSDOF 0
REMARK  Name = ../refined-set-2016/1rp7/1rp7_pocket.pdb
REMARK  268 active torsions:
REMARK  status: ('A' for Active; 'I' for Inactive)
REMARK    1  A    between atoms: _1  and  _3
REMARK    2  A    between atoms: _3  and  _4
REMARK    3  A    between atoms: _7  and  _9
REMARK    4  A    between atoms: _9  and  _10
REMARK    5  A    between atoms: _9  and  _12
REMARK    6  A    between atoms: _12  and  _13
REMARK    7  A    between atoms: _16  and  _18
REMARK    8  A    between atoms: _18  and  _19
REMARK    9  A    between atoms: _18  and  _21
REMARK   10  A    between atoms: _21  and  _22
REMARK   11  A    between atoms: _22  and  _23
REMARK   12  A    between atoms: _26  and  _28
REMARK   13  A    between atoms: _28  and  _29
REMARK   14  A    between atoms: _28  and  _31
REMARK   15  A    between atoms: _31  and  _32
REMARK   16  A    between atoms: _35  and  _37
REMARK   17  A    between atoms: _37  and  _38
REMARK   18  A    between atoms: _40  and  _42
REMARK   19  A    between atoms: _42  and  _43
REMARK   20  A    between atoms: _42  and  _45
REMARK   21  A    between atoms: _45  and  _46
REMARK   22  A    between atoms: _49  and  _51
REMARK   23  A    between atoms: _51  and  _52
REMARK   24  A    between atoms: _51  and  _54
REMARK   25  A    between atoms: _54  and  _55
REMARK   26  A    between atoms: _60  and  _62
REMARK   27  A    between atoms: _62  and  _63
REMARK   28  A    between atoms: _62  and  _65
REMARK   29  A    between atoms: _65  and  _66
REMARK   30  A    between atoms: _66  and  _67
REMARK   31  A    between atoms: _70  and  _72
REMARK   32  A    between atoms: _72  and  _73
REMARK   33  A    between atoms: _72  and  _75
REMARK   34  A    between atoms: _75  and  _76
REMARK   35  A    between atoms: _79  and  _81
REMARK   36  A    between atoms: _81  and  _82
REMARK   37  A    between atoms: _81  and  _84
REMARK   38  A    between atoms: _84  and  _85
REMARK   39  A    between atoms: _90  and  _91
REMARK   40  A    between atoms: _93  and  _95
REMARK   41  A    between atoms: _95  and  _96
REMARK   42  A    between atoms: _95  and  _98
REMARK   43  A    between atoms: _98  and  _99
REMARK   44  A    between atoms: _104  and  _105
REMARK   45  A    between atoms: _107  and  _109
REMARK   46  A    between atoms: _109  and  _110
REMARK   47  A    between atoms: _109  and  _112
REMARK   48  A    between atoms: _112  and  _113
REMARK   49  A    between atoms: _118  and  _119
REMARK   50  A    between atoms: _121  and  _123
REMARK   51  A    between atoms: _123  and  _124
REMARK   52  A    between atoms: _123  and  _126
REMARK   53  A    between atoms: _126  and  _127
REMARK   54  A    between atoms: _127  and  _128
REMARK   55  A    between atoms: _130  and  _132
REMARK   56  A    between atoms: _132  and  _133
REMARK   57  A    between atoms: _132  and  _135
REMARK   58  A    between atoms: _135  and  _136
REMARK   59  A    between atoms: _142  and  _144
REMARK   60  A    between atoms: _144  and  _145
REMARK   61  A    between atoms: _144  and  _147
REMARK   62  A    between atoms: _147  and  _148
REMARK   63  A    between atoms: _148  and  _149
REMARK   64  A    between atoms: _149  and  _150
REMARK   65  A    between atoms: _159  and  _161
REMARK   66  A    between atoms: _161  and  _162
REMARK   67  A    between atoms: _161  and  _164
REMARK   68  A    between atoms: _164  and  _165
REMARK   69  A    between atoms: _165  and  _166
REMARK   70  A    between atoms: _169  and  _171
REMARK   71  A    between atoms: _171  and  _172
REMARK   72  A    between atoms: _171  and  _174
REMARK   73  A    between atoms: _174  and  _175
REMARK   74  A    between atoms: _175  and  _176
REMARK   75  A    between atoms: _181  and  _183
REMARK   76  A    between atoms: _183  and  _184
REMARK   77  A    between atoms: _183  and  _186
REMARK   78  A    between atoms: _186  and  _187
REMARK   79  A    between atoms: _192  and  _194
REMARK   80  A    between atoms: _194  and  _195
REMARK   81  A    between atoms: _194  and  _197
REMARK   82  A    between atoms: _197  and  _198
REMARK   83  A    between atoms: _203  and  _205
REMARK   84  A    between atoms: _205  and  _206
REMARK   85  A    between atoms: _205  and  _208
REMARK   86  A    between atoms: _208  and  _209
REMARK   87  A    between atoms: _209  and  _210
REMARK   88  A    between atoms: _212  and  _214
REMARK   89  A    between atoms: _214  and  _215
REMARK   90  A    between atoms: _218  and  _220
REMARK   91  A    between atoms: _220  and  _221
REMARK   92  A    between atoms: _220  and  _223
REMARK   93  A    between atoms: _223  and  _224
REMARK   94  A    between atoms: _226  and  _228
REMARK   95  A    between atoms: _228  and  _229
REMARK   96  A    between atoms: _228  and  _231
REMARK   97  A    between atoms: _231  and  _232
REMARK   98  A    between atoms: _238  and  _240
REMARK   99  A    between atoms: _240  and  _241
REMARK  100  A    between atoms: _240  and  _243
REMARK  101  A    between atoms: _243  and  _244
REMARK  102  A    between atoms: _244  and  _245
REMARK  103  A    between atoms: _250  and  _252
REMARK  104  A    between atoms: _252  and  _253
REMARK  105  A    between atoms: _252  and  _255
REMARK  106  A    between atoms: _255  and  _256
REMARK  107  A    between atoms: _258  and  _260
REMARK  108  A    between atoms: _260  and  _261
REMARK  109  A    between atoms: _260  and  _263
REMARK  110  A    between atoms: _263  and  _264
REMARK  111  A    between atoms: _266  and  _268
REMARK  112  A    between atoms: _268  and  _269
REMARK  113  A    between atoms: _268  and  _271
REMARK  114  A    between atoms: _271  and  _272
REMARK  115  A    between atoms: _277  and  _278
REMARK  116  A    between atoms: _280  and  _282
REMARK  117  A    between atoms: _282  and  _283
REMARK  118  A    between atoms: _282  and  _285
REMARK  119  A    between atoms: _285  and  _286
REMARK  120  A    between atoms: _286  and  _287
REMARK  121  A    between atoms: _292  and  _294
REMARK  122  A    between atoms: _294  and  _295
REMARK  123  A    between atoms: _297  and  _299
REMARK  124  A    between atoms: _299  and  _300
REMARK  125  A    between atoms: _299  and  _302
REMARK  126  A    between atoms: _302  and  _303
REMARK  127  A    between atoms: _308  and  _310
REMARK  128  A    between atoms: _310  and  _311
REMARK  129  A    between atoms: _310  and  _313
REMARK  130  A    between atoms: _313  and  _314
REMARK  131  A    between atoms: _317  and  _319
REMARK  132  A    between atoms: _319  and  _320
REMARK  133  A    between atoms: _319  and  _322
REMARK  134  A    between atoms: _322  and  _323
REMARK  135  A    between atoms: _323  and  _324
REMARK  136  A    between atoms: _324  and  _325
REMARK  137  A    between atoms: _334  and  _336
REMARK  138  A    between atoms: _336  and  _337
REMARK  139  A    between atoms: _336  and  _339
REMARK  140  A    between atoms: _339  and  _340
REMARK  141  A    between atoms: _345  and  _346
REMARK  142  A    between atoms: _348  and  _350
REMARK  143  A    between atoms: _350  and  _351
REMARK  144  A    between atoms: _350  and  _353
REMARK  145  A    between atoms: _353  and  _354
REMARK  146  A    between atoms: _357  and  _359
REMARK  147  A    between atoms: _359  and  _360
REMARK  148  A    between atoms: _359  and  _362
REMARK  149  A    between atoms: _365  and  _367
REMARK  150  A    between atoms: _367  and  _368
REMARK  151  A    between atoms: _367  and  _370
REMARK  152  A    between atoms: _370  and  _371
REMARK  153  A    between atoms: _373  and  _375
REMARK  154  A    between atoms: _375  and  _376
REMARK  155  A    between atoms: _375  and  _378
REMARK  156  A    between atoms: _378  and  _379
REMARK  157  A    between atoms: _379  and  _380
REMARK  158  A    between atoms: _382  and  _384
REMARK  159  A    between atoms: _384  and  _385
REMARK  160  A    between atoms: _387  and  _389
REMARK  161  A    between atoms: _389  and  _390
REMARK  162  A    between atoms: _389  and  _392
REMARK  163  A    between atoms: _392  and  _393
REMARK  164  A    between atoms: _396  and  _398
REMARK  165  A    between atoms: _398  and  _399
REMARK  166  A    between atoms: _398  and  _401
REMARK  167  A    between atoms: _401  and  _402
REMARK  168  A    between atoms: _408  and  _410
REMARK  169  A    between atoms: _410  and  _411
REMARK  170  A    between atoms: _410  and  _413
REMARK  171  A    between atoms: _413  and  _414
REMARK  172  A    between atoms: _417  and  _419
REMARK  173  A    between atoms: _419  and  _420
REMARK  174  A    between atoms: _422  and  _424
REMARK  175  A    between atoms: _424  and  _425
REMARK  176  A    between atoms: _424  and  _427
REMARK  177  A    between atoms: _427  and  _428
REMARK  178  A    between atoms: _431  and  _433
REMARK  179  A    between atoms: _433  and  _434
REMARK  180  A    between atoms: _436  and  _438
REMARK  181  A    between atoms: _438  and  _439
REMARK  182  A    between atoms: _438  and  _441
REMARK  183  A    between atoms: _441  and  _442
REMARK  184  A    between atoms: _442  and  _443
REMARK  185  A    between atoms: _446  and  _448
REMARK  186  A    between atoms: _448  and  _449
REMARK  187  A    between atoms: _448  and  _451
REMARK  188  A    between atoms: _451  and  _452
REMARK  189  A    between atoms: _452  and  _453
REMARK  190  A    between atoms: _455  and  _457
REMARK  191  A    between atoms: _457  and  _458
REMARK  192  A    between atoms: _457  and  _460
REMARK  193  A    between atoms: _460  and  _461
REMARK  194  A    between atoms: _464  and  _466
REMARK  195  A    between atoms: _466  and  _467
REMARK  196  A    between atoms: _466  and  _469
REMARK  197  A    between atoms: _469  and  _470
REMARK  198  A    between atoms: _470  and  _471
REMARK  199  A    between atoms: _474  and  _476
REMARK  200  A    between atoms: _476  and  _477
REMARK  201  A    between atoms: _476  and  _479
REMARK  202  A    between atoms: _479  and  _480
REMARK  203  A    between atoms: _480  and  _481
REMARK  204  A    between atoms: _484  and  _486
REMARK  205  A    between atoms: _486  and  _487
REMARK  206  A    between atoms: _486  and  _489
REMARK  207  A    between atoms: _489  and  _490
REMARK  208  A    between atoms: _492  and  _494
REMARK  209  A    between atoms: _494  and  _495
REMARK  210  A    between atoms: _494  and  _497
REMARK  211  A    between atoms: _497  and  _498
REMARK  212  A    between atoms: _501  and  _503
REMARK  213  A    between atoms: _503  and  _504
REMARK  214  A    between atoms: _503  and  _506
REMARK  215  A    between atoms: _506  and  _507
REMARK  216  A    between atoms: _512  and  _514
REMARK  217  A    between atoms: _514  and  _515
REMARK  218  A    between atoms: _514  and  _517
REMARK  219  A    between atoms: _519  and  _521
REMARK  220  A    between atoms: _525  and  _527
REMARK  221  A    between atoms: _532  and  _535
REMARK  222  A    between atoms: _535  and  _536
REMARK  223  A    between atoms: _541  and  _544
REMARK  224  A    between atoms: _542  and  _551
REMARK  225  A    between atoms: _544  and  _545
REMARK  226  A    between atoms: _545  and  _546
REMARK  227  A    between atoms: _551  and  _553
REMARK  228  A    between atoms: _553  and  _554
REMARK  229  A    between atoms: _553  and  _556
REMARK  230  A    between atoms: _556  and  _557
REMARK  231  A    between atoms: _557  and  _558
REMARK  232  A    between atoms: _558  and  _559
REMARK  233  A    between atoms: _568  and  _570
REMARK  234  A    between atoms: _570  and  _571
REMARK  235  A    between atoms: _570  and  _573
REMARK  236  A    between atoms: _573  and  _574
REMARK  237  A    between atoms: _577  and  _579
REMARK  238  A    between atoms: _579  and  _580
REMARK  239  A    between atoms: _579  and  _582
REMARK  240  A    between atoms: _582  and  _583
REMARK  241  A    between atoms: _586  and  _588
REMARK  242  A    between atoms: _588  and  _589
REMARK  243  A    between atoms: _592  and  _593
REMARK  244  A    between atoms: _598  and  _600
REMARK  245  A    between atoms: _600  and  _601
REMARK  246  A    between atoms: _600  and  _603
REMARK  247  A    between atoms: _606  and  _608
REMARK  248  A    between atoms: _608  and  _609
REMARK  249  A    between atoms: _608  and  _611
REMARK  250  A    between atoms: _611  and  _612
REMARK  251  A    between atoms: _612  and  _613
REMARK  252  A    between atoms: _618  and  _620
REMARK  253  A    between atoms: _620  and  _621
REMARK  254  A    between atoms: _620  and  _623
REMARK  255  A    between atoms: _623  and  _624
REMARK  256  A    between atoms: _627  and  _629
REMARK  257  A    between atoms: _629  and  _630
REMARK  258  A    between atoms: _629  and  _632
REMARK  259  A    between atoms: _632  and  _633
REMARK  260  A    between atoms: _633  and  _634
REMARK  261  A    between atoms: _634  and  _635
REMARK  262  A    between atoms: _635  and  _636
REMARK  263  A    between atoms: _640  and  _642
REMARK  264  A    between atoms: _642  and  _643
REMARK  265  A    between atoms: _645  and  _647
REMARK  266  A    between atoms: _647  and  _648
REMARK  267  A    between atoms: _647  and  _650
REMARK  268  A    between atoms: _650  and  _651
REMARK                            x       y       z     vdW  Elec       q    Type
REMARK                         _______ _______ _______ _____ _____    ______ ____
ROOT
ATOM      1  O   HOH     1      25.953 -27.202  17.700  0.00  0.00    +0.000 OA
ENDROOT
TORSDOF 0
REMARK  Name = ../refined-set-2016/1rp7/1rp7_pocket.pdb
REMARK  268 active torsions:
REMARK  status: ('A' for Active; 'I' for Inactive)
REMARK    1  A    between atoms: _1  and  _3
REMARK    2  A    between atoms: _3  and  _4
REMARK    3  A    between atoms: _7  and  _9
REMARK    4  A    between atoms: _9  and  _10
REMARK    5  A    between atoms: _9  and  _12
REMARK    6  A    between atoms: _12  and  _13
REMARK    7  A    between atoms: _16  and  _18
REMARK    8  A    between atoms: _18  and  _19
REMARK    9  A    between atoms: _18  and  _21
REMARK   10  A    between atoms: _21  and  _22
REMARK   11  A    between atoms: _22  and  _23
REMARK   12  A    between atoms: _26  and  _28
REMARK   13  A    between atoms: _28  and  _29
REMARK   14  A    between atoms: _28  and  _31
REMARK   15  A    between atoms: _31  and  _32
REMARK   16  A    between atoms: _35  and  _37
REMARK   17  A    between atoms: _37  and  _38
REMARK   18  A    between atoms: _40  and  _42
REMARK   19  A    between atoms: _42  and  _43
REMARK   20  A    between atoms: _42  and  _45
REMARK   21  A    between atoms: _45  and  _46
REMARK   22  A    between atoms: _49  and  _51
REMARK   23  A    between atoms: _51  and  _52
REMARK   24  A    between atoms: _51  and  _54
REMARK   25  A    between atoms: _54  and  _55
REMARK   26  A    between atoms: _60  and  _62
REMARK   27  A    between atoms: _62  and  _63
REMARK   28  A    between atoms: _62  and  _65
REMARK   29  A    between atoms: _65  and  _66
REMARK   30  A    between atoms: _66  and  _67
REMARK   31  A    between atoms: _70  and  _72
REMARK   32  A    between atoms: _72  and  _73
REMARK   33  A    between atoms: _72  and  _75
REMARK   34  A    between atoms: _75  and  _76
REMARK   35  A    between atoms: _79  and  _81
REMARK   36  A    between atoms: _81  and  _82
REMARK   37  A    between atoms: _81  and  _84
REMARK   38  A    between atoms: _84  and  _85
REMARK   39  A    between atoms: _90  and  _91
REMARK   40  A    between atoms: _93  and  _95
REMARK   41  A    between atoms: _95  and  _96
REMARK   42  A    between atoms: _95  and  _98
REMARK   43  A    between atoms: _98  and  _99
REMARK   44  A    between atoms: _104  and  _105
REMARK   45  A    between atoms: _107  and  _109
REMARK   46  A    between atoms: _109  and  _110
REMARK   47  A    between atoms: _109  and  _112
REMARK   48  A    between atoms: _112  and  _113
REMARK   49  A    between atoms: _118  and  _119
REMARK   50  A    between atoms: _121  and  _123
REMARK   51  A    between atoms: _123  and  _124
REMARK   52  A    between atoms: _123  and  _126
REMARK   53  A    between atoms: _126  and  _127
REMARK   54  A    between atoms: _127  and  _128
REMARK   55  A    between atoms: _130  and  _132
REMARK   56  A    between atoms: _132  and  _133
REMARK   57  A    between atoms: _132  and  _135
REMARK   58  A    between atoms: _135  and  _136
REMARK   59  A    between atoms: _142  and  _144
REMARK   60  A    between atoms: _144  and  _145
REMARK   61  A    between atoms: _144  and  _147
REMARK   62  A    between atoms: _147  and  _148
REMARK   63  A    between atoms: _148  and  _149
REMARK   64  A    between atoms: _149  and  _150
REMARK   65  A    between atoms: _159  and  _161
REMARK   66  A    between atoms: _161  and  _162
REMARK   67  A    between atoms: _161  and  _164
REMARK   68  A    between atoms: _164  and  _165
REMARK   69  A    between atoms: _165  and  _166
REMARK   70  A    between atoms: _169  and  _171
REMARK   71  A    between atoms: _171  and  _172
REMARK   72  A    between atoms: _171  and  _174
REMARK   73  A    between atoms: _174  and  _175
REMARK   74  A    between atoms: _175  and  _176
REMARK   75  A    between atoms: _181  and  _183
REMARK   76  A    between atoms: _183  and  _184
REMARK   77  A    between atoms: _183  and  _186
REMARK   78  A    between atoms: _186  and  _187
REMARK   79  A    between atoms: _192  and  _194
REMARK   80  A    between atoms: _194  and  _195
REMARK   81  A    between atoms: _194  and  _197
REMARK   82  A    between atoms: _197  and  _198
REMARK   83  A    between atoms: _203  and  _205
REMARK   84  A    between atoms: _205  and  _206
REMARK   85  A    between atoms: _205  and  _208
REMARK   86  A    between atoms: _208  and  _209
REMARK   87  A    between atoms: _209  and  _210
REMARK   88  A    between atoms: _212  and  _214
REMARK   89  A    between atoms: _214  and  _215
REMARK   90  A    between atoms: _218  and  _220
REMARK   91  A    between atoms: _220  and  _221
REMARK   92  A    between atoms: _220  and  _223
REMARK   93  A    between atoms: _223  and  _224
REMARK   94  A    between atoms: _226  and  _228
REMARK   95  A    between atoms: _228  and  _229
REMARK   96  A    between atoms: _228  and  _231
REMARK   97  A    between atoms: _231  and  _232
REMARK   98  A    between atoms: _238  and  _240
REMARK   99  A    between atoms: _240  and  _241
REMARK  100  A    between atoms: _240  and  _243
REMARK  101  A    between atoms: _243  and  _244
REMARK  102  A    between atoms: _244  and  _245
REMARK  103  A    between atoms: _250  and  _252
REMARK  104  A    between atoms: _252  and  _253
REMARK  105  A    between atoms: _252  and  _255
REMARK  106  A    between atoms: _255  and  _256
REMARK  107  A    between atoms: _258  and  _260
REMARK  108  A    between atoms: _260  and  _261
REMARK  109  A    between atoms: _260  and  _263
REMARK  110  A    between atoms: _263  and  _264
REMARK  111  A    between atoms: _266  and  _268
REMARK  112  A    between atoms: _268  and  _269
REMARK  113  A    between atoms: _268  and  _271
REMARK  114  A    between atoms: _271  and  _272
REMARK  115  A    between atoms: _277  and  _278
REMARK  116  A    between atoms: _280  and  _282
REMARK  117  A    between atoms: _282  and  _283
REMARK  118  A    between atoms: _282  and  _285
REMARK  119  A    between atoms: _285  and  _286
REMARK  120  A    between atoms: _286  and  _287
REMARK  121  A    between atoms: _292  and  _294
REMARK  122  A    between atoms: _294  and  _295
REMARK  123  A    between atoms: _297  and  _299
REMARK  124  A    between atoms: _299  and  _300
REMARK  125  A    between atoms: _299  and  _302
REMARK  126  A    between atoms: _302  and  _303
REMARK  127  A    between atoms: _308  and  _310
REMARK  128  A    between atoms: _310  and  _311
REMARK  129  A    between atoms: _310  and  _313
REMARK  130  A    between atoms: _313  and  _314
REMARK  131  A    between atoms: _317  and  _319
REMARK  132  A    between atoms: _319  and  _320
REMARK  133  A    between atoms: _319  and  _322
REMARK  134  A    between atoms: _322  and  _323
REMARK  135  A    between atoms: _323  and  _324
REMARK  136  A    between atoms: _324  and  _325
REMARK  137  A    between atoms: _334  and  _336
REMARK  138  A    between atoms: _336  and  _337
REMARK  139  A    between atoms: _336  and  _339
REMARK  140  A    between atoms: _339  and  _340
REMARK  141  A    between atoms: _345  and  _346
REMARK  142  A    between atoms: _348  and  _350
REMARK  143  A    between atoms: _350  and  _351
REMARK  144  A    between atoms: _350  and  _353
REMARK  145  A    between atoms: _353  and  _354
REMARK  146  A    between atoms: _357  and  _359
REMARK  147  A    between atoms: _359  and  _360
REMARK  148  A    between atoms: _359  and  _362
REMARK  149  A    between atoms: _365  and  _367
REMARK  150  A    between atoms: _367  and  _368
REMARK  151  A    between atoms: _367  and  _370
REMARK  152  A    between atoms: _370  and  _371
REMARK  153  A    between atoms: _373  and  _375
REMARK  154  A    between atoms: _375  and  _376
REMARK  155  A    between atoms: _375  and  _378
REMARK  156  A    between atoms: _378  and  _379
REMARK  157  A    between atoms: _379  and  _380
REMARK  158  A    between atoms: _382  and  _384
REMARK  159  A    between atoms: _384  and  _385
REMARK  160  A    between atoms: _387  and  _389
REMARK  161  A    between atoms: _389  and  _390
REMARK  162  A    between atoms: _389  and  _392
REMARK  163  A    between atoms: _392  and  _393
REMARK  164  A    between atoms: _396  and  _398
REMARK  165  A    between atoms: _398  and  _399
REMARK  166  A    between atoms: _398  and  _401
REMARK  167  A    between atoms: _401  and  _402
REMARK  168  A    between atoms: _408  and  _410
REMARK  169  A    between atoms: _410  and  _411
REMARK  170  A    between atoms: _410  and  _413
REMARK  171  A    between atoms: _413  and  _414
REMARK  172  A    between atoms: _417  and  _419
REMARK  173  A    between atoms: _419  and  _420
REMARK  174  A    between atoms: _422  and  _424
REMARK  175  A    between atoms: _424  and  _425
REMARK  176  A    between atoms: _424  and  _427
REMARK  177  A    between atoms: _427  and  _428
REMARK  178  A    between atoms: _431  and  _433
REMARK  179  A    between atoms: _433  and  _434
REMARK  180  A    between atoms: _436  and  _438
REMARK  181  A    between atoms: _438  and  _439
REMARK  182  A    between atoms: _438  and  _441
REMARK  183  A    between atoms: _441  and  _442
REMARK  184  A    between atoms: _442  and  _443
REMARK  185  A    between atoms: _446  and  _448
REMARK  186  A    between atoms: _448  and  _449
REMARK  187  A    between atoms: _448  and  _451
REMARK  188  A    between atoms: _451  and  _452
REMARK  189  A    between atoms: _452  and  _453
REMARK  190  A    between atoms: _455  and  _457
REMARK  191  A    between atoms: _457  and  _458
REMARK  192  A    between atoms: _457  and  _460
REMARK  193  A    between atoms: _460  and  _461
REMARK  194  A    between atoms: _464  and  _466
REMARK  195  A    between atoms: _466  and  _467
REMARK  196  A    between atoms: _466  and  _469
REMARK  197  A    between atoms: _469  and  _470
REMARK  198  A    between atoms: _470  and  _471
REMARK  199  A    between atoms: _474  and  _476
REMARK  200  A    between atoms: _476  and  _477
REMARK  201  A    between atoms: _476  and  _479
REMARK  202  A    between atoms: _479  and  _480
REMARK  203  A    between atoms: _480  and  _481
REMARK  204  A    between atoms: _484  and  _486
REMARK  205  A    between atoms: _486  and  _487
REMARK  206  A    between atoms: _486  and  _489
REMARK  207  A    between atoms: _489  and  _490
REMARK  208  A    between atoms: _492  and  _494
REMARK  209  A    between atoms: _494  and  _495
REMARK  210  A    between atoms: _494  and  _497
REMARK  211  A    between atoms: _497  and  _498
REMARK  212  A    between atoms: _501  and  _503
REMARK  213  A    between atoms: _503  and  _504
REMARK  214  A    between atoms: _503  and  _506
REMARK  215  A    between atoms: _506  and  _507
REMARK  216  A    between atoms: _512  and  _514
REMARK  217  A    between atoms: _514  and  _515
REMARK  218  A    between atoms: _514  and  _517
REMARK  219  A    between atoms: _519  and  _521
REMARK  220  A    between atoms: _525  and  _527
REMARK  221  A    between atoms: _532  and  _535
REMARK  222  A    between atoms: _535  and  _536
REMARK  223  A    between atoms: _541  and  _544
REMARK  224  A    between atoms: _542  and  _551
REMARK  225  A    between atoms: _544  and  _545
REMARK  226  A    between atoms: _545  and  _546
REMARK  227  A    between atoms: _551  and  _553
REMARK  228  A    between atoms: _553  and  _554
REMARK  229  A    between atoms: _553  and  _556
REMARK  230  A    between atoms: _556  and  _557
REMARK  231  A    between atoms: _557  and  _558
REMARK  232  A    between atoms: _558  and  _559
REMARK  233  A    between atoms: _568  and  _570
REMARK  234  A    between atoms: _570  and  _571
REMARK  235  A    between atoms: _570  and  _573
REMARK  236  A    between atoms: _573  and  _574
REMARK  237  A    between atoms: _577  and  _579
REMARK  238  A    between atoms: _579  and  _580
REMARK  239  A    between atoms: _579  and  _582
REMARK  240  A    between atoms: _582  and  _583
REMARK  241  A    between atoms: _586  and  _588
REMARK  242  A    between atoms: _588  and  _589
REMARK  243  A    between atoms: _592  and  _593
REMARK  244  A    between atoms: _598  and  _600
REMARK  245  A    between atoms: _600  and  _601
REMARK  246  A    between atoms: _600  and  _603
REMARK  247  A    between atoms: _606  and  _608
REMARK  248  A    between atoms: _608  and  _609
REMARK  249  A    between atoms: _608  and  _611
REMARK  250  A    between atoms: _611  and  _612
REMARK  251  A    between atoms: _612  and  _613
REMARK  252  A    between atoms: _618  and  _620
REMARK  253  A    between atoms: _620  and  _621
REMARK  254  A    between atoms: _620  and  _623
REMARK  255  A    between atoms: _623  and  _624
REMARK  256  A    between atoms: _627  and  _629
REMARK  257  A    between atoms: _629  and  _630
REMARK  258  A    between atoms: _629  and  _632
REMARK  259  A    between atoms: _632  and  _633
REMARK  260  A    between atoms: _633  and  _634
REMARK  261  A    between atoms: _634  and  _635
REMARK  262  A    between atoms: _635  and  _636
REMARK  263  A    between atoms: _640  and  _642
REMARK  264  A    between atoms: _642  and  _643
REMARK  265  A    between atoms: _645  and  _647
REMARK  266  A    between atoms: _647  and  _648
REMARK  267  A    between atoms: _647  and  _650
REMARK  268  A    between atoms: _650  and  _651
REMARK                            x       y       z     vdW  Elec       q    Type
REMARK                         _______ _______ _______ _____ _____    ______ ____
ROOT
ATOM      1  O   HOH     1      28.575 -35.477  15.813  0.00  0.00    +0.000 OA
ENDROOT
TORSDOF 0
REMARK  Name = ../refined-set-2016/1rp7/1rp7_pocket.pdb
REMARK  268 active torsions:
REMARK  status: ('A' for Active; 'I' for Inactive)
REMARK    1  A    between atoms: _1  and  _3
REMARK    2  A    between atoms: _3  and  _4
REMARK    3  A    between atoms: _7  and  _9
REMARK    4  A    between atoms: _9  and  _10
REMARK    5  A    between atoms: _9  and  _12
REMARK    6  A    between atoms: _12  and  _13
REMARK    7  A    between atoms: _16  and  _18
REMARK    8  A    between atoms: _18  and  _19
REMARK    9  A    between atoms: _18  and  _21
REMARK   10  A    between atoms: _21  and  _22
REMARK   11  A    between atoms: _22  and  _23
REMARK   12  A    between atoms: _26  and  _28
REMARK   13  A    between atoms: _28  and  _29
REMARK   14  A    between atoms: _28  and  _31
REMARK   15  A    between atoms: _31  and  _32
REMARK   16  A    between atoms: _35  and  _37
REMARK   17  A    between atoms: _37  and  _38
REMARK   18  A    between atoms: _40  and  _42
REMARK   19  A    between atoms: _42  and  _43
REMARK   20  A    between atoms: _42  and  _45
REMARK   21  A    between atoms: _45  and  _46
REMARK   22  A    between atoms: _49  and  _51
REMARK   23  A    between atoms: _51  and  _52
REMARK   24  A    between atoms: _51  and  _54
REMARK   25  A    between atoms: _54  and  _55
REMARK   26  A    between atoms: _60  and  _62
REMARK   27  A    between atoms: _62  and  _63
REMARK   28  A    between atoms: _62  and  _65
REMARK   29  A    between atoms: _65  and  _66
REMARK   30  A    between atoms: _66  and  _67
REMARK   31  A    between atoms: _70  and  _72
REMARK   32  A    between atoms: _72  and  _73
REMARK   33  A    between atoms: _72  and  _75
REMARK   34  A    between atoms: _75  and  _76
REMARK   35  A    between atoms: _79  and  _81
REMARK   36  A    between atoms: _81  and  _82
REMARK   37  A    between atoms: _81  and  _84
REMARK   38  A    between atoms: _84  and  _85
REMARK   39  A    between atoms: _90  and  _91
REMARK   40  A    between atoms: _93  and  _95
REMARK   41  A    between atoms: _95  and  _96
REMARK   42  A    between atoms: _95  and  _98
REMARK   43  A    between atoms: _98  and  _99
REMARK   44  A    between atoms: _104  and  _105
REMARK   45  A    between atoms: _107  and  _109
REMARK   46  A    between atoms: _109  and  _110
REMARK   47  A    between atoms: _109  and  _112
REMARK   48  A    between atoms: _112  and  _113
REMARK   49  A    between atoms: _118  and  _119
REMARK   50  A    between atoms: _121  and  _123
REMARK   51  A    between atoms: _123  and  _124
REMARK   52  A    between atoms: _123  and  _126
REMARK   53  A    between atoms: _126  and  _127
REMARK   54  A    between atoms: _127  and  _128
REMARK   55  A    between atoms: _130  and  _132
REMARK   56  A    between atoms: _132  and  _133
REMARK   57  A    between atoms: _132  and  _135
REMARK   58  A    between atoms: _135  and  _136
REMARK   59  A    between atoms: _142  and  _144
REMARK   60  A    between atoms: _144  and  _145
REMARK   61  A    between atoms: _144  and  _147
REMARK   62  A    between atoms: _147  and  _148
REMARK   63  A    between atoms: _148  and  _149
REMARK   64  A    between atoms: _149  and  _150
REMARK   65  A    between atoms: _159  and  _161
REMARK   66  A    between atoms: _161  and  _162
REMARK   67  A    between atoms: _161  and  _164
REMARK   68  A    between atoms: _164  and  _165
REMARK   69  A    between atoms: _165  and  _166
REMARK   70  A    between atoms: _169  and  _171
REMARK   71  A    between atoms: _171  and  _172
REMARK   72  A    between atoms: _171  and  _174
REMARK   73  A    between atoms: _174  and  _175
REMARK   74  A    between atoms: _175  and  _176
REMARK   75  A    between atoms: _181  and  _183
REMARK   76  A    between atoms: _183  and  _184
REMARK   77  A    between atoms: _183  and  _186
REMARK   78  A    between atoms: _186  and  _187
REMARK   79  A    between atoms: _192  and  _194
REMARK   80  A    between atoms: _194  and  _195
REMARK   81  A    between atoms: _194  and  _197
REMARK   82  A    between atoms: _197  and  _198
REMARK   83  A    between atoms: _203  and  _205
REMARK   84  A    between atoms: _205  and  _206
REMARK   85  A    between atoms: _205  and  _208
REMARK   86  A    between atoms: _208  and  _209
REMARK   87  A    between atoms: _209  and  _210
REMARK   88  A    between atoms: _212  and  _214
REMARK   89  A    between atoms: _214  and  _215
REMARK   90  A    between atoms: _218  and  _220
REMARK   91  A    between atoms: _220  and  _221
REMARK   92  A    between atoms: _220  and  _223
REMARK   93  A    between atoms: _223  and  _224
REMARK   94  A    between atoms: _226  and  _228
REMARK   95  A    between atoms: _228  and  _229
REMARK   96  A    between atoms: _228  and  _231
REMARK   97  A    between atoms: _231  and  _232
REMARK   98  A    between atoms: _238  and  _240
REMARK   99  A    between atoms: _240  and  _241
REMARK  100  A    between atoms: _240  and  _243
REMARK  101  A    between atoms: _243  and  _244
REMARK  102  A    between atoms: _244  and  _245
REMARK  103  A    between atoms: _250  and  _252
REMARK  104  A    between atoms: _252  and  _253
REMARK  105  A    between atoms: _252  and  _255
REMARK  106  A    between atoms: _255  and  _256
REMARK  107  A    between atoms: _258  and  _260
REMARK  108  A    between atoms: _260  and  _261
REMARK  109  A    between atoms: _260  and  _263
REMARK  110  A    between atoms: _263  and  _264
REMARK  111  A    between atoms: _266  and  _268
REMARK  112  A    between atoms: _268  and  _269
REMARK  113  A    between atoms: _268  and  _271
REMARK  114  A    between atoms: _271  and  _272
REMARK  115  A    between atoms: _277  and  _278
REMARK  116  A    between atoms: _280  and  _282
REMARK  117  A    between atoms: _282  and  _283
REMARK  118  A    between atoms: _282  and  _285
REMARK  119  A    between atoms: _285  and  _286
REMARK  120  A    between atoms: _286  and  _287
REMARK  121  A    between atoms: _292  and  _294
REMARK  122  A    between atoms: _294  and  _295
REMARK  123  A    between atoms: _297  and  _299
REMARK  124  A    between atoms: _299  and  _300
REMARK  125  A    between atoms: _299  and  _302
REMARK  126  A    between atoms: _302  and  _303
REMARK  127  A    between atoms: _308  and  _310
REMARK  128  A    between atoms: _310  and  _311
REMARK  129  A    between atoms: _310  and  _313
REMARK  130  A    between atoms: _313  and  _314
REMARK  131  A    between atoms: _317  and  _319
REMARK  132  A    between atoms: _319  and  _320
REMARK  133  A    between atoms: _319  and  _322
REMARK  134  A    between atoms: _322  and  _323
REMARK  135  A    between atoms: _323  and  _324
REMARK  136  A    between atoms: _324  and  _325
REMARK  137  A    between atoms: _334  and  _336
REMARK  138  A    between atoms: _336  and  _337
REMARK  139  A    between atoms: _336  and  _339
REMARK  140  A    between atoms: _339  and  _340
REMARK  141  A    between atoms: _345  and  _346
REMARK  142  A    between atoms: _348  and  _350
REMARK  143  A    between atoms: _350  and  _351
REMARK  144  A    between atoms: _350  and  _353
REMARK  145  A    between atoms: _353  and  _354
REMARK  146  A    between atoms: _357  and  _359
REMARK  147  A    between atoms: _359  and  _360
REMARK  148  A    between atoms: _359  and  _362
REMARK  149  A    between atoms: _365  and  _367
REMARK  150  A    between atoms: _367  and  _368
REMARK  151  A    between atoms: _367  and  _370
REMARK  152  A    between atoms: _370  and  _371
REMARK  153  A    between atoms: _373  and  _375
REMARK  154  A    between atoms: _375  and  _376
REMARK  155  A    between atoms: _375  and  _378
REMARK  156  A    between atoms: _378  and  _379
REMARK  157  A    between atoms: _379  and  _380
REMARK  158  A    between atoms: _382  and  _384
REMARK  159  A    between atoms: _384  and  _385
REMARK  160  A    between atoms: _387  and  _389
REMARK  161  A    between atoms: _389  and  _390
REMARK  162  A    between atoms: _389  and  _392
REMARK  163  A    between atoms: _392  and  _393
REMARK  164  A    between atoms: _396  and  _398
REMARK  165  A    between atoms: _398  and  _399
REMARK  166  A    between atoms: _398  and  _401
REMARK  167  A    between atoms: _401  and  _402
REMARK  168  A    between atoms: _408  and  _410
REMARK  169  A    between atoms: _410  and  _411
REMARK  170  A    between atoms: _410  and  _413
REMARK  171  A    between atoms: _413  and  _414
REMARK  172  A    between atoms: _417  and  _419
REMARK  173  A    between atoms: _419  and  _420
REMARK  174  A    between atoms: _422  and  _424
REMARK  175  A    between atoms: _424  and  _425
REMARK  176  A    between atoms: _424  and  _427
REMARK  177  A    between atoms: _427  and  _428
REMARK  178  A    between atoms: _431  and  _433
REMARK  179  A    between atoms: _433  and  _434
REMARK  180  A    between atoms: _436  and  _438
REMARK  181  A    between atoms: _438  and  _439
REMARK  182  A    between atoms: _438  and  _441
REMARK  183  A    between atoms: _441  and  _442
REMARK  184  A    between atoms: _442  and  _443
REMARK  185  A    between atoms: _446  and  _448
REMARK  186  A    between atoms: _448  and  _449
REMARK  187  A    between atoms: _448  and  _451
REMARK  188  A    between atoms: _451  and  _452
REMARK  189  A    between atoms: _452  and  _453
REMARK  190  A    between atoms: _455  and  _457
REMARK  191  A    between atoms: _457  and  _458
REMARK  192  A    between atoms: _457  and  _460
REMARK  193  A    between atoms: _460  and  _461
REMARK  194  A    between atoms: _464  and  _466
REMARK  195  A    between atoms: _466  and  _467
REMARK  196  A    between atoms: _466  and  _469
REMARK  197  A    between atoms: _469  and  _470
REMARK  198  A    between atoms: _470  and  _471
REMARK  199  A    between atoms: _474  and  _476
REMARK  200  A    between atoms: _476  and  _477
REMARK  201  A    between atoms: _476  and  _479
REMARK  202  A    between atoms: _479  and  _480
REMARK  203  A    between atoms: _480  and  _481
REMARK  204  A    between atoms: _484  and  _486
REMARK  205  A    between atoms: _486  and  _487
REMARK  206  A    between atoms: _486  and  _489
REMARK  207  A    between atoms: _489  and  _490
REMARK  208  A    between atoms: _492  and  _494
REMARK  209  A    between atoms: _494  and  _495
REMARK  210  A    between atoms: _494  and  _497
REMARK  211  A    between atoms: _497  and  _498
REMARK  212  A    between atoms: _501  and  _503
REMARK  213  A    between atoms: _503  and  _504
REMARK  214  A    between atoms: _503  and  _506
REMARK  215  A    between atoms: _506  and  _507
REMARK  216  A    between atoms: _512  and  _514
REMARK  217  A    between atoms: _514  and  _515
REMARK  218  A    between atoms: _514  and  _517
REMARK  219  A    between atoms: _519  and  _521
REMARK  220  A    between atoms: _525  and  _527
REMARK  221  A    between atoms: _532  and  _535
REMARK  222  A    between atoms: _535  and  _536
REMARK  223  A    between atoms: _541  and  _544
REMARK  224  A    between atoms: _542  and  _551
REMARK  225  A    between atoms: _544  and  _545
REMARK  226  A    between atoms: _545  and  _546
REMARK  227  A    between atoms: _551  and  _553
REMARK  228  A    between atoms: _553  and  _554
REMARK  229  A    between atoms: _553  and  _556
REMARK  230  A    between atoms: _556  and  _557
REMARK  231  A    between atoms: _557  and  _558
REMARK  232  A    between atoms: _558  and  _559
REMARK  233  A    between atoms: _568  and  _570
REMARK  234  A    between atoms: _570  and  _571
REMARK  235  A    between atoms: _570  and  _573
REMARK  236  A    between atoms: _573  and  _574
REMARK  237  A    between atoms: _577  and  _579
REMARK  238  A    between atoms: _579  and  _580
REMARK  239  A    between atoms: _579  and  _582
REMARK  240  A    between atoms: _582  and  _583
REMARK  241  A    between atoms: _586  and  _588
REMARK  242  A    between atoms: _588  and  _589
REMARK  243  A    between atoms: _592  and  _593
REMARK  244  A    between atoms: _598  and  _600
REMARK  245  A    between atoms: _600  and  _601
REMARK  246  A    between atoms: _600  and  _603
REMARK  247  A    between atoms: _606  and  _608
REMARK  248  A    between atoms: _608  and  _609
REMARK  249  A    between atoms: _608  and  _611
REMARK  250  A    between atoms: _611  and  _612
REMARK  251  A    between atoms: _612  and  _613
REMARK  252  A    between atoms: _618  and  _620
REMARK  253  A    between atoms: _620  and  _621
REMARK  254  A    between atoms: _620  and  _623
REMARK  255  A    between atoms: _623  and  _624
REMARK  256  A    between atoms: _627  and  _629
REMARK  257  A    between atoms: _629  and  _630
REMARK  258  A    between atoms: _629  and  _632
REMARK  259  A    between atoms: _632  and  _633
REMARK  260  A    between atoms: _633  and  _634
REMARK  261  A    between atoms: _634  and  _635
REMARK  262  A    between atoms: _635  and  _636
REMARK  263  A    between atoms: _640  and  _642
REMARK  264  A    between atoms: _642  and  _643
REMARK  265  A    between atoms: _645  and  _647
REMARK  266  A    between atoms: _647  and  _648
REMARK  267  A    between atoms: _647  and  _650
REMARK  268  A    between atoms: _650  and  _651
REMARK                            x       y       z     vdW  Elec       q    Type
REMARK                         _______ _______ _______ _____ _____    ______ ____
ROOT
ATOM      1  O   HOH     1      27.249 -41.902  15.642  0.00  0.00    +0.000 OA
ENDROOT
TORSDOF 0
REMARK  Name = ../refined-set-2016/1rp7/1rp7_pocket.pdb
REMARK  268 active torsions:
REMARK  status: ('A' for Active; 'I' for Inactive)
REMARK    1  A    between atoms: _1  and  _3
REMARK    2  A    between atoms: _3  and  _4
REMARK    3  A    between atoms: _7  and  _9
REMARK    4  A    between atoms: _9  and  _10
REMARK    5  A    between atoms: _9  and  _12
REMARK    6  A    between atoms: _12  and  _13
REMARK    7  A    between atoms: _16  and  _18
REMARK    8  A    between atoms: _18  and  _19
REMARK    9  A    between atoms: _18  and  _21
REMARK   10  A    between atoms: _21  and  _22
REMARK   11  A    between atoms: _22  and  _23
REMARK   12  A    between atoms: _26  and  _28
REMARK   13  A    between atoms: _28  and  _29
REMARK   14  A    between atoms: _28  and  _31
REMARK   15  A    between atoms: _31  and  _32
REMARK   16  A    between atoms: _35  and  _37
REMARK   17  A    between atoms: _37  and  _38
REMARK   18  A    between atoms: _40  and  _42
REMARK   19  A    between atoms: _42  and  _43
REMARK   20  A    between atoms: _42  and  _45
REMARK   21  A    between atoms: _45  and  _46
REMARK   22  A    between atoms: _49  and  _51
REMARK   23  A    between atoms: _51  and  _52
REMARK   24  A    between atoms: _51  and  _54
REMARK   25  A    between atoms: _54  and  _55
REMARK   26  A    between atoms: _60  and  _62
REMARK   27  A    between atoms: _62  and  _63
REMARK   28  A    between atoms: _62  and  _65
REMARK   29  A    between atoms: _65  and  _66
REMARK   30  A    between atoms: _66  and  _67
REMARK   31  A    between atoms: _70  and  _72
REMARK   32  A    between atoms: _72  and  _73
REMARK   33  A    between atoms: _72  and  _75
REMARK   34  A    between atoms: _75  and  _76
REMARK   35  A    between atoms: _79  and  _81
REMARK   36  A    between atoms: _81  and  _82
REMARK   37  A    between atoms: _81  and  _84
REMARK   38  A    between atoms: _84  and  _85
REMARK   39  A    between atoms: _90  and  _91
REMARK   40  A    between atoms: _93  and  _95
REMARK   41  A    between atoms: _95  and  _96
REMARK   42  A    between atoms: _95  and  _98
REMARK   43  A    between atoms: _98  and  _99
REMARK   44  A    between atoms: _104  and  _105
REMARK   45  A    between atoms: _107  and  _109
REMARK   46  A    between atoms: _109  and  _110
REMARK   47  A    between atoms: _109  and  _112
REMARK   48  A    between atoms: _112  and  _113
REMARK   49  A    between atoms: _118  and  _119
REMARK   50  A    between atoms: _121  and  _123
REMARK   51  A    between atoms: _123  and  _124
REMARK   52  A    between atoms: _123  and  _126
REMARK   53  A    between atoms: _126  and  _127
REMARK   54  A    between atoms: _127  and  _128
REMARK   55  A    between atoms: _130  and  _132
REMARK   56  A    between atoms: _132  and  _133
REMARK   57  A    between atoms: _132  and  _135
REMARK   58  A    between atoms: _135  and  _136
REMARK   59  A    between atoms: _142  and  _144
REMARK   60  A    between atoms: _144  and  _145
REMARK   61  A    between atoms: _144  and  _147
REMARK   62  A    between atoms: _147  and  _148
REMARK   63  A    between atoms: _148  and  _149
REMARK   64  A    between atoms: _149  and  _150
REMARK   65  A    between atoms: _159  and  _161
REMARK   66  A    between atoms: _161  and  _162
REMARK   67  A    between atoms: _161  and  _164
REMARK   68  A    between atoms: _164  and  _165
REMARK   69  A    between atoms: _165  and  _166
REMARK   70  A    between atoms: _169  and  _171
REMARK   71  A    between atoms: _171  and  _172
REMARK   72  A    between atoms: _171  and  _174
REMARK   73  A    between atoms: _174  and  _175
REMARK   74  A    between atoms: _175  and  _176
REMARK   75  A    between atoms: _181  and  _183
REMARK   76  A    between atoms: _183  and  _184
REMARK   77  A    between atoms: _183  and  _186
REMARK   78  A    between atoms: _186  and  _187
REMARK   79  A    between atoms: _192  and  _194
REMARK   80  A    between atoms: _194  and  _195
REMARK   81  A    between atoms: _194  and  _197
REMARK   82  A    between atoms: _197  and  _198
REMARK   83  A    between atoms: _203  and  _205
REMARK   84  A    between atoms: _205  and  _206
REMARK   85  A    between atoms: _205  and  _208
REMARK   86  A    between atoms: _208  and  _209
REMARK   87  A    between atoms: _209  and  _210
REMARK   88  A    between atoms: _212  and  _214
REMARK   89  A    between atoms: _214  and  _215
REMARK   90  A    between atoms: _218  and  _220
REMARK   91  A    between atoms: _220  and  _221
REMARK   92  A    between atoms: _220  and  _223
REMARK   93  A    between atoms: _223  and  _224
REMARK   94  A    between atoms: _226  and  _228
REMARK   95  A    between atoms: _228  and  _229
REMARK   96  A    between atoms: _228  and  _231
REMARK   97  A    between atoms: _231  and  _232
REMARK   98  A    between atoms: _238  and  _240
REMARK   99  A    between atoms: _240  and  _241
REMARK  100  A    between atoms: _240  and  _243
REMARK  101  A    between atoms: _243  and  _244
REMARK  102  A    between atoms: _244  and  _245
REMARK  103  A    between atoms: _250  and  _252
REMARK  104  A    between atoms: _252  and  _253
REMARK  105  A    between atoms: _252  and  _255
REMARK  106  A    between atoms: _255  and  _256
REMARK  107  A    between atoms: _258  and  _260
REMARK  108  A    between atoms: _260  and  _261
REMARK  109  A    between atoms: _260  and  _263
REMARK  110  A    between atoms: _263  and  _264
REMARK  111  A    between atoms: _266  and  _268
REMARK  112  A    between atoms: _268  and  _269
REMARK  113  A    between atoms: _268  and  _271
REMARK  114  A    between atoms: _271  and  _272
REMARK  115  A    between atoms: _277  and  _278
REMARK  116  A    between atoms: _280  and  _282
REMARK  117  A    between atoms: _282  and  _283
REMARK  118  A    between atoms: _282  and  _285
REMARK  119  A    between atoms: _285  and  _286
REMARK  120  A    between atoms: _286  and  _287
REMARK  121  A    between atoms: _292  and  _294
REMARK  122  A    between atoms: _294  and  _295
REMARK  123  A    between atoms: _297  and  _299
REMARK  124  A    between atoms: _299  and  _300
REMARK  125  A    between atoms: _299  and  _302
REMARK  126  A    between atoms: _302  and  _303
REMARK  127  A    between atoms: _308  and  _310
REMARK  128  A    between atoms: _310  and  _311
REMARK  129  A    between atoms: _310  and  _313
REMARK  130  A    between atoms: _313  and  _314
REMARK  131  A    between atoms: _317  and  _319
REMARK  132  A    between atoms: _319  and  _320
REMARK  133  A    between atoms: _319  and  _322
REMARK  134  A    between atoms: _322  and  _323
REMARK  135  A    between atoms: _323  and  _324
REMARK  136  A    between atoms: _324  and  _325
REMARK  137  A    between atoms: _334  and  _336
REMARK  138  A    between atoms: _336  and  _337
REMARK  139  A    between atoms: _336  and  _339
REMARK  140  A    between atoms: _339  and  _340
REMARK  141  A    between atoms: _345  and  _346
REMARK  142  A    between atoms: _348  and  _350
REMARK  143  A    between atoms: _350  and  _351
REMARK  144  A    between atoms: _350  and  _353
REMARK  145  A    between atoms: _353  and  _354
REMARK  146  A    between atoms: _357  and  _359
REMARK  147  A    between atoms: _359  and  _360
REMARK  148  A    between atoms: _359  and  _362
REMARK  149  A    between atoms: _365  and  _367
REMARK  150  A    between atoms: _367  and  _368
REMARK  151  A    between atoms: _367  and  _370
REMARK  152  A    between atoms: _370  and  _371
REMARK  153  A    between atoms: _373  and  _375
REMARK  154  A    between atoms: _375  and  _376
REMARK  155  A    between atoms: _375  and  _378
REMARK  156  A    between atoms: _378  and  _379
REMARK  157  A    between atoms: _379  and  _380
REMARK  158  A    between atoms: _382  and  _384
REMARK  159  A    between atoms: _384  and  _385
REMARK  160  A    between atoms: _387  and  _389
REMARK  161  A    between atoms: _389  and  _390
REMARK  162  A    between atoms: _389  and  _392
REMARK  163  A    between atoms: _392  and  _393
REMARK  164  A    between atoms: _396  and  _398
REMARK  165  A    between atoms: _398  and  _399
REMARK  166  A    between atoms: _398  and  _401
REMARK  167  A    between atoms: _401  and  _402
REMARK  168  A    between atoms: _408  and  _410
REMARK  169  A    between atoms: _410  and  _411
REMARK  170  A    between atoms: _410  and  _413
REMARK  171  A    between atoms: _413  and  _414
REMARK  172  A    between atoms: _417  and  _419
REMARK  173  A    between atoms: _419  and  _420
REMARK  174  A    between atoms: _422  and  _424
REMARK  175  A    between atoms: _424  and  _425
REMARK  176  A    between atoms: _424  and  _427
REMARK  177  A    between atoms: _427  and  _428
REMARK  178  A    between atoms: _431  and  _433
REMARK  179  A    between atoms: _433  and  _434
REMARK  180  A    between atoms: _436  and  _438
REMARK  181  A    between atoms: _438  and  _439
REMARK  182  A    between atoms: _438  and  _441
REMARK  183  A    between atoms: _441  and  _442
REMARK  184  A    between atoms: _442  and  _443
REMARK  185  A    between atoms: _446  and  _448
REMARK  186  A    between atoms: _448  and  _449
REMARK  187  A    between atoms: _448  and  _451
REMARK  188  A    between atoms: _451  and  _452
REMARK  189  A    between atoms: _452  and  _453
REMARK  190  A    between atoms: _455  and  _457
REMARK  191  A    between atoms: _457  and  _458
REMARK  192  A    between atoms: _457  and  _460
REMARK  193  A    between atoms: _460  and  _461
REMARK  194  A    between atoms: _464  and  _466
REMARK  195  A    between atoms: _466  and  _467
REMARK  196  A    between atoms: _466  and  _469
REMARK  197  A    between atoms: _469  and  _470
REMARK  198  A    between atoms: _470  and  _471
REMARK  199  A    between atoms: _474  and  _476
REMARK  200  A    between atoms: _476  and  _477
REMARK  201  A    between atoms: _476  and  _479
REMARK  202  A    between atoms: _479  and  _480
REMARK  203  A    between atoms: _480  and  _481
REMARK  204  A    between atoms: _484  and  _486
REMARK  205  A    between atoms: _486  and  _487
REMARK  206  A    between atoms: _486  and  _489
REMARK  207  A    between atoms: _489  and  _490
REMARK  208  A    between atoms: _492  and  _494
REMARK  209  A    between atoms: _494  and  _495
REMARK  210  A    between atoms: _494  and  _497
REMARK  211  A    between atoms: _497  and  _498
REMARK  212  A    between atoms: _501  and  _503
REMARK  213  A    between atoms: _503  and  _504
REMARK  214  A    between atoms: _503  and  _506
REMARK  215  A    between atoms: _506  and  _507
REMARK  216  A    between atoms: _512  and  _514
REMARK  217  A    between atoms: _514  and  _515
REMARK  218  A    between atoms: _514  and  _517
REMARK  219  A    between atoms: _519  and  _521
REMARK  220  A    between atoms: _525  and  _527
REMARK  221  A    between atoms: _532  and  _535
REMARK  222  A    between atoms: _535  and  _536
REMARK  223  A    between atoms: _541  and  _544
REMARK  224  A    between atoms: _542  and  _551
REMARK  225  A    between atoms: _544  and  _545
REMARK  226  A    between atoms: _545  and  _546
REMARK  227  A    between atoms: _551  and  _553
REMARK  228  A    between atoms: _553  and  _554
REMARK  229  A    between atoms: _553  and  _556
REMARK  230  A    between atoms: _556  and  _557
REMARK  231  A    between atoms: _557  and  _558
REMARK  232  A    between atoms: _558  and  _559
REMARK  233  A    between atoms: _568  and  _570
REMARK  234  A    between atoms: _570  and  _571
REMARK  235  A    between atoms: _570  and  _573
REMARK  236  A    between atoms: _573  and  _574
REMARK  237  A    between atoms: _577  and  _579
REMARK  238  A    between atoms: _579  and  _580
REMARK  239  A    between atoms: _579  and  _582
REMARK  240  A    between atoms: _582  and  _583
REMARK  241  A    between atoms: _586  and  _588
REMARK  242  A    between atoms: _588  and  _589
REMARK  243  A    between atoms: _592  and  _593
REMARK  244  A    between atoms: _598  and  _600
REMARK  245  A    between atoms: _600  and  _601
REMARK  246  A    between atoms: _600  and  _603
REMARK  247  A    between atoms: _606  and  _608
REMARK  248  A    between atoms: _608  and  _609
REMARK  249  A    between atoms: _608  and  _611
REMARK  250  A    between atoms: _611  and  _612
REMARK  251  A    between atoms: _612  and  _613
REMARK  252  A    between atoms: _618  and  _620
REMARK  253  A    between atoms: _620  and  _621
REMARK  254  A    between atoms: _620  and  _623
REMARK  255  A    between atoms: _623  and  _624
REMARK  256  A    between atoms: _627  and  _629
REMARK  257  A    between atoms: _629  and  _630
REMARK  258  A    between atoms: _629  and  _632
REMARK  259  A    between atoms: _632  and  _633
REMARK  260  A    between atoms: _633  and  _634
REMARK  261  A    between atoms: _634  and  _635
REMARK  262  A    between atoms: _635  and  _636
REMARK  263  A    between atoms: _640  and  _642
REMARK  264  A    between atoms: _642  and  _643
REMARK  265  A    between atoms: _645  and  _647
REMARK  266  A    between atoms: _647  and  _648
REMARK  267  A    between atoms: _647  and  _650
REMARK  268  A    between atoms: _650  and  _651
REMARK                            x       y       z     vdW  Elec       q    Type
REMARK                         _______ _______ _______ _____ _____    ______ ____
ROOT
ATOM      1  O   HOH     1      31.085 -42.478  13.610  0.00  0.00    +0.000 OA
ENDROOT
TORSDOF 0
REMARK  Name = ../refined-set-2016/1rp7/1rp7_pocket.pdb
REMARK  268 active torsions:
REMARK  status: ('A' for Active; 'I' for Inactive)
REMARK    1  A    between atoms: _1  and  _3
REMARK    2  A    between atoms: _3  and  _4
REMARK    3  A    between atoms: _7  and  _9
REMARK    4  A    between atoms: _9  and  _10
REMARK    5  A    between atoms: _9  and  _12
REMARK    6  A    between atoms: _12  and  _13
REMARK    7  A    between atoms: _16  and  _18
REMARK    8  A    between atoms: _18  and  _19
REMARK    9  A    between atoms: _18  and  _21
REMARK   10  A    between atoms: _21  and  _22
REMARK   11  A    between atoms: _22  and  _23
REMARK   12  A    between atoms: _26  and  _28
REMARK   13  A    between atoms: _28  and  _29
REMARK   14  A    between atoms: _28  and  _31
REMARK   15  A    between atoms: _31  and  _32
REMARK   16  A    between atoms: _35  and  _37
REMARK   17  A    between atoms: _37  and  _38
REMARK   18  A    between atoms: _40  and  _42
REMARK   19  A    between atoms: _42  and  _43
REMARK   20  A    between atoms: _42  and  _45
REMARK   21  A    between atoms: _45  and  _46
REMARK   22  A    between atoms: _49  and  _51
REMARK   23  A    between atoms: _51  and  _52
REMARK   24  A    between atoms: _51  and  _54
REMARK   25  A    between atoms: _54  and  _55
REMARK   26  A    between atoms: _60  and  _62
REMARK   27  A    between atoms: _62  and  _63
REMARK   28  A    between atoms: _62  and  _65
REMARK   29  A    between atoms: _65  and  _66
REMARK   30  A    between atoms: _66  and  _67
REMARK   31  A    between atoms: _70  and  _72
REMARK   32  A    between atoms: _72  and  _73
REMARK   33  A    between atoms: _72  and  _75
REMARK   34  A    between atoms: _75  and  _76
REMARK   35  A    between atoms: _79  and  _81
REMARK   36  A    between atoms: _81  and  _82
REMARK   37  A    between atoms: _81  and  _84
REMARK   38  A    between atoms: _84  and  _85
REMARK   39  A    between atoms: _90  and  _91
REMARK   40  A    between atoms: _93  and  _95
REMARK   41  A    between atoms: _95  and  _96
REMARK   42  A    between atoms: _95  and  _98
REMARK   43  A    between atoms: _98  and  _99
REMARK   44  A    between atoms: _104  and  _105
REMARK   45  A    between atoms: _107  and  _109
REMARK   46  A    between atoms: _109  and  _110
REMARK   47  A    between atoms: _109  and  _112
REMARK   48  A    between atoms: _112  and  _113
REMARK   49  A    between atoms: _118  and  _119
REMARK   50  A    between atoms: _121  and  _123
REMARK   51  A    between atoms: _123  and  _124
REMARK   52  A    between atoms: _123  and  _126
REMARK   53  A    between atoms: _126  and  _127
REMARK   54  A    between atoms: _127  and  _128
REMARK   55  A    between atoms: _130  and  _132
REMARK   56  A    between atoms: _132  and  _133
REMARK   57  A    between atoms: _132  and  _135
REMARK   58  A    between atoms: _135  and  _136
REMARK   59  A    between atoms: _142  and  _144
REMARK   60  A    between atoms: _144  and  _145
REMARK   61  A    between atoms: _144  and  _147
REMARK   62  A    between atoms: _147  and  _148
REMARK   63  A    between atoms: _148  and  _149
REMARK   64  A    between atoms: _149  and  _150
REMARK   65  A    between atoms: _159  and  _161
REMARK   66  A    between atoms: _161  and  _162
REMARK   67  A    between atoms: _161  and  _164
REMARK   68  A    between atoms: _164  and  _165
REMARK   69  A    between atoms: _165  and  _166
REMARK   70  A    between atoms: _169  and  _171
REMARK   71  A    between atoms: _171  and  _172
REMARK   72  A    between atoms: _171  and  _174
REMARK   73  A    between atoms: _174  and  _175
REMARK   74  A    between atoms: _175  and  _176
REMARK   75  A    between atoms: _181  and  _183
REMARK   76  A    between atoms: _183  and  _184
REMARK   77  A    between atoms: _183  and  _186
REMARK   78  A    between atoms: _186  and  _187
REMARK   79  A    between atoms: _192  and  _194
REMARK   80  A    between atoms: _194  and  _195
REMARK   81  A    between atoms: _194  and  _197
REMARK   82  A    between atoms: _197  and  _198
REMARK   83  A    between atoms: _203  and  _205
REMARK   84  A    between atoms: _205  and  _206
REMARK   85  A    between atoms: _205  and  _208
REMARK   86  A    between atoms: _208  and  _209
REMARK   87  A    between atoms: _209  and  _210
REMARK   88  A    between atoms: _212  and  _214
REMARK   89  A    between atoms: _214  and  _215
REMARK   90  A    between atoms: _218  and  _220
REMARK   91  A    between atoms: _220  and  _221
REMARK   92  A    between atoms: _220  and  _223
REMARK   93  A    between atoms: _223  and  _224
REMARK   94  A    between atoms: _226  and  _228
REMARK   95  A    between atoms: _228  and  _229
REMARK   96  A    between atoms: _228  and  _231
REMARK   97  A    between atoms: _231  and  _232
REMARK   98  A    between atoms: _238  and  _240
REMARK   99  A    between atoms: _240  and  _241
REMARK  100  A    between atoms: _240  and  _243
REMARK  101  A    between atoms: _243  and  _244
REMARK  102  A    between atoms: _244  and  _245
REMARK  103  A    between atoms: _250  and  _252
REMARK  104  A    between atoms: _252  and  _253
REMARK  105  A    between atoms: _252  and  _255
REMARK  106  A    between atoms: _255  and  _256
REMARK  107  A    between atoms: _258  and  _260
REMARK  108  A    between atoms: _260  and  _261
REMARK  109  A    between atoms: _260  and  _263
REMARK  110  A    between atoms: _263  and  _264
REMARK  111  A    between atoms: _266  and  _268
REMARK  112  A    between atoms: _268  and  _269
REMARK  113  A    between atoms: _268  and  _271
REMARK  114  A    between atoms: _271  and  _272
REMARK  115  A    between atoms: _277  and  _278
REMARK  116  A    between atoms: _280  and  _282
REMARK  117  A    between atoms: _282  and  _283
REMARK  118  A    between atoms: _282  and  _285
REMARK  119  A    between atoms: _285  and  _286
REMARK  120  A    between atoms: _286  and  _287
REMARK  121  A    between atoms: _292  and  _294
REMARK  122  A    between atoms: _294  and  _295
REMARK  123  A    between atoms: _297  and  _299
REMARK  124  A    between atoms: _299  and  _300
REMARK  125  A    between atoms: _299  and  _302
REMARK  126  A    between atoms: _302  and  _303
REMARK  127  A    between atoms: _308  and  _310
REMARK  128  A    between atoms: _310  and  _311
REMARK  129  A    between atoms: _310  and  _313
REMARK  130  A    between atoms: _313  and  _314
REMARK  131  A    between atoms: _317  and  _319
REMARK  132  A    between atoms: _319  and  _320
REMARK  133  A    between atoms: _319  and  _322
REMARK  134  A    between atoms: _322  and  _323
REMARK  135  A    between atoms: _323  and  _324
REMARK  136  A    between atoms: _324  and  _325
REMARK  137  A    between atoms: _334  and  _336
REMARK  138  A    between atoms: _336  and  _337
REMARK  139  A    between atoms: _336  and  _339
REMARK  140  A    between atoms: _339  and  _340
REMARK  141  A    between atoms: _345  and  _346
REMARK  142  A    between atoms: _348  and  _350
REMARK  143  A    between atoms: _350  and  _351
REMARK  144  A    between atoms: _350  and  _353
REMARK  145  A    between atoms: _353  and  _354
REMARK  146  A    between atoms: _357  and  _359
REMARK  147  A    between atoms: _359  and  _360
REMARK  148  A    between atoms: _359  and  _362
REMARK  149  A    between atoms: _365  and  _367
REMARK  150  A    between atoms: _367  and  _368
REMARK  151  A    between atoms: _367  and  _370
REMARK  152  A    between atoms: _370  and  _371
REMARK  153  A    between atoms: _373  and  _375
REMARK  154  A    between atoms: _375  and  _376
REMARK  155  A    between atoms: _375  and  _378
REMARK  156  A    between atoms: _378  and  _379
REMARK  157  A    between atoms: _379  and  _380
REMARK  158  A    between atoms: _382  and  _384
REMARK  159  A    between atoms: _384  and  _385
REMARK  160  A    between atoms: _387  and  _389
REMARK  161  A    between atoms: _389  and  _390
REMARK  162  A    between atoms: _389  and  _392
REMARK  163  A    between atoms: _392  and  _393
REMARK  164  A    between atoms: _396  and  _398
REMARK  165  A    between atoms: _398  and  _399
REMARK  166  A    between atoms: _398  and  _401
REMARK  167  A    between atoms: _401  and  _402
REMARK  168  A    between atoms: _408  and  _410
REMARK  169  A    between atoms: _410  and  _411
REMARK  170  A    between atoms: _410  and  _413
REMARK  171  A    between atoms: _413  and  _414
REMARK  172  A    between atoms: _417  and  _419
REMARK  173  A    between atoms: _419  and  _420
REMARK  174  A    between atoms: _422  and  _424
REMARK  175  A    between atoms: _424  and  _425
REMARK  176  A    between atoms: _424  and  _427
REMARK  177  A    between atoms: _427  and  _428
REMARK  178  A    between atoms: _431  and  _433
REMARK  179  A    between atoms: _433  and  _434
REMARK  180  A    between atoms: _436  and  _438
REMARK  181  A    between atoms: _438  and  _439
REMARK  182  A    between atoms: _438  and  _441
REMARK  183  A    between atoms: _441  and  _442
REMARK  184  A    between atoms: _442  and  _443
REMARK  185  A    between atoms: _446  and  _448
REMARK  186  A    between atoms: _448  and  _449
REMARK  187  A    between atoms: _448  and  _451
REMARK  188  A    between atoms: _451  and  _452
REMARK  189  A    between atoms: _452  and  _453
REMARK  190  A    between atoms: _455  and  _457
REMARK  191  A    between atoms: _457  and  _458
REMARK  192  A    between atoms: _457  and  _460
REMARK  193  A    between atoms: _460  and  _461
REMARK  194  A    between atoms: _464  and  _466
REMARK  195  A    between atoms: _466  and  _467
REMARK  196  A    between atoms: _466  and  _469
REMARK  197  A    between atoms: _469  and  _470
REMARK  198  A    between atoms: _470  and  _471
REMARK  199  A    between atoms: _474  and  _476
REMARK  200  A    between atoms: _476  and  _477
REMARK  201  A    between atoms: _476  and  _479
REMARK  202  A    between atoms: _479  and  _480
REMARK  203  A    between atoms: _480  and  _481
REMARK  204  A    between atoms: _484  and  _486
REMARK  205  A    between atoms: _486  and  _487
REMARK  206  A    between atoms: _486  and  _489
REMARK  207  A    between atoms: _489  and  _490
REMARK  208  A    between atoms: _492  and  _494
REMARK  209  A    between atoms: _494  and  _495
REMARK  210  A    between atoms: _494  and  _497
REMARK  211  A    between atoms: _497  and  _498
REMARK  212  A    between atoms: _501  and  _503
REMARK  213  A    between atoms: _503  and  _504
REMARK  214  A    between atoms: _503  and  _506
REMARK  215  A    between atoms: _506  and  _507
REMARK  216  A    between atoms: _512  and  _514
REMARK  217  A    between atoms: _514  and  _515
REMARK  218  A    between atoms: _514  and  _517
REMARK  219  A    between atoms: _519  and  _521
REMARK  220  A    between atoms: _525  and  _527
REMARK  221  A    between atoms: _532  and  _535
REMARK  222  A    between atoms: _535  and  _536
REMARK  223  A    between atoms: _541  and  _544
REMARK  224  A    between atoms: _542  and  _551
REMARK  225  A    between atoms: _544  and  _545
REMARK  226  A    between atoms: _545  and  _546
REMARK  227  A    between atoms: _551  and  _553
REMARK  228  A    between atoms: _553  and  _554
REMARK  229  A    between atoms: _553  and  _556
REMARK  230  A    between atoms: _556  and  _557
REMARK  231  A    between atoms: _557  and  _558
REMARK  232  A    between atoms: _558  and  _559
REMARK  233  A    between atoms: _568  and  _570
REMARK  234  A    between atoms: _570  and  _571
REMARK  235  A    between atoms: _570  and  _573
REMARK  236  A    between atoms: _573  and  _574
REMARK  237  A    between atoms: _577  and  _579
REMARK  238  A    between atoms: _579  and  _580
REMARK  239  A    between atoms: _579  and  _582
REMARK  240  A    between atoms: _582  and  _583
REMARK  241  A    between atoms: _586  and  _588
REMARK  242  A    between atoms: _588  and  _589
REMARK  243  A    between atoms: _592  and  _593
REMARK  244  A    between atoms: _598  and  _600
REMARK  245  A    between atoms: _600  and  _601
REMARK  246  A    between atoms: _600  and  _603
REMARK  247  A    between atoms: _606  and  _608
REMARK  248  A    between atoms: _608  and  _609
REMARK  249  A    between atoms: _608  and  _611
REMARK  250  A    between atoms: _611  and  _612
REMARK  251  A    between atoms: _612  and  _613
REMARK  252  A    between atoms: _618  and  _620
REMARK  253  A    between atoms: _620  and  _621
REMARK  254  A    between atoms: _620  and  _623
REMARK  255  A    between atoms: _623  and  _624
REMARK  256  A    between atoms: _627  and  _629
REMARK  257  A    between atoms: _629  and  _630
REMARK  258  A    between atoms: _629  and  _632
REMARK  259  A    between atoms: _632  and  _633
REMARK  260  A    between atoms: _633  and  _634
REMARK  261  A    between atoms: _634  and  _635
REMARK  262  A    between atoms: _635  and  _636
REMARK  263  A    between atoms: _640  and  _642
REMARK  264  A    between atoms: _642  and  _643
REMARK  265  A    between atoms: _645  and  _647
REMARK  266  A    between atoms: _647  and  _648
REMARK  267  A    between atoms: _647  and  _650
REMARK  268  A    between atoms: _650  and  _651
REMARK                            x       y       z     vdW  Elec       q    Type
REMARK                         _______ _______ _______ _____ _____    ______ ____
ROOT
ATOM      1  O   HOH     1      24.478 -35.725  23.212  0.00  0.00    +0.000 OA
ENDROOT
TORSDOF 0
REMARK  Name = ../refined-set-2016/1rp7/1rp7_pocket.pdb
REMARK  268 active torsions:
REMARK  status: ('A' for Active; 'I' for Inactive)
REMARK    1  A    between atoms: _1  and  _3
REMARK    2  A    between atoms: _3  and  _4
REMARK    3  A    between atoms: _7  and  _9
REMARK    4  A    between atoms: _9  and  _10
REMARK    5  A    between atoms: _9  and  _12
REMARK    6  A    between atoms: _12  and  _13
REMARK    7  A    between atoms: _16  and  _18
REMARK    8  A    between atoms: _18  and  _19
REMARK    9  A    between atoms: _18  and  _21
REMARK   10  A    between atoms: _21  and  _22
REMARK   11  A    between atoms: _22  and  _23
REMARK   12  A    between atoms: _26  and  _28
REMARK   13  A    between atoms: _28  and  _29
REMARK   14  A    between atoms: _28  and  _31
REMARK   15  A    between atoms: _31  and  _32
REMARK   16  A    between atoms: _35  and  _37
REMARK   17  A    between atoms: _37  and  _38
REMARK   18  A    between atoms: _40  and  _42
REMARK   19  A    between atoms: _42  and  _43
REMARK   20  A    between atoms: _42  and  _45
REMARK   21  A    between atoms: _45  and  _46
REMARK   22  A    between atoms: _49  and  _51
REMARK   23  A    between atoms: _51  and  _52
REMARK   24  A    between atoms: _51  and  _54
REMARK   25  A    between atoms: _54  and  _55
REMARK   26  A    between atoms: _60  and  _62
REMARK   27  A    between atoms: _62  and  _63
REMARK   28  A    between atoms: _62  and  _65
REMARK   29  A    between atoms: _65  and  _66
REMARK   30  A    between atoms: _66  and  _67
REMARK   31  A    between atoms: _70  and  _72
REMARK   32  A    between atoms: _72  and  _73
REMARK   33  A    between atoms: _72  and  _75
REMARK   34  A    between atoms: _75  and  _76
REMARK   35  A    between atoms: _79  and  _81
REMARK   36  A    between atoms: _81  and  _82
REMARK   37  A    between atoms: _81  and  _84
REMARK   38  A    between atoms: _84  and  _85
REMARK   39  A    between atoms: _90  and  _91
REMARK   40  A    between atoms: _93  and  _95
REMARK   41  A    between atoms: _95  and  _96
REMARK   42  A    between atoms: _95  and  _98
REMARK   43  A    between atoms: _98  and  _99
REMARK   44  A    between atoms: _104  and  _105
REMARK   45  A    between atoms: _107  and  _109
REMARK   46  A    between atoms: _109  and  _110
REMARK   47  A    between atoms: _109  and  _112
REMARK   48  A    between atoms: _112  and  _113
REMARK   49  A    between atoms: _118  and  _119
REMARK   50  A    between atoms: _121  and  _123
REMARK   51  A    between atoms: _123  and  _124
REMARK   52  A    between atoms: _123  and  _126
REMARK   53  A    between atoms: _126  and  _127
REMARK   54  A    between atoms: _127  and  _128
REMARK   55  A    between atoms: _130  and  _132
REMARK   56  A    between atoms: _132  and  _133
REMARK   57  A    between atoms: _132  and  _135
REMARK   58  A    between atoms: _135  and  _136
REMARK   59  A    between atoms: _142  and  _144
REMARK   60  A    between atoms: _144  and  _145
REMARK   61  A    between atoms: _144  and  _147
REMARK   62  A    between atoms: _147  and  _148
REMARK   63  A    between atoms: _148  and  _149
REMARK   64  A    between atoms: _149  and  _150
REMARK   65  A    between atoms: _159  and  _161
REMARK   66  A    between atoms: _161  and  _162
REMARK   67  A    between atoms: _161  and  _164
REMARK   68  A    between atoms: _164  and  _165
REMARK   69  A    between atoms: _165  and  _166
REMARK   70  A    between atoms: _169  and  _171
REMARK   71  A    between atoms: _171  and  _172
REMARK   72  A    between atoms: _171  and  _174
REMARK   73  A    between atoms: _174  and  _175
REMARK   74  A    between atoms: _175  and  _176
REMARK   75  A    between atoms: _181  and  _183
REMARK   76  A    between atoms: _183  and  _184
REMARK   77  A    between atoms: _183  and  _186
REMARK   78  A    between atoms: _186  and  _187
REMARK   79  A    between atoms: _192  and  _194
REMARK   80  A    between atoms: _194  and  _195
REMARK   81  A    between atoms: _194  and  _197
REMARK   82  A    between atoms: _197  and  _198
REMARK   83  A    between atoms: _203  and  _205
REMARK   84  A    between atoms: _205  and  _206
REMARK   85  A    between atoms: _205  and  _208
REMARK   86  A    between atoms: _208  and  _209
REMARK   87  A    between atoms: _209  and  _210
REMARK   88  A    between atoms: _212  and  _214
REMARK   89  A    between atoms: _214  and  _215
REMARK   90  A    between atoms: _218  and  _220
REMARK   91  A    between atoms: _220  and  _221
REMARK   92  A    between atoms: _220  and  _223
REMARK   93  A    between atoms: _223  and  _224
REMARK   94  A    between atoms: _226  and  _228
REMARK   95  A    between atoms: _228  and  _229
REMARK   96  A    between atoms: _228  and  _231
REMARK   97  A    between atoms: _231  and  _232
REMARK   98  A    between atoms: _238  and  _240
REMARK   99  A    between atoms: _240  and  _241
REMARK  100  A    between atoms: _240  and  _243
REMARK  101  A    between atoms: _243  and  _244
REMARK  102  A    between atoms: _244  and  _245
REMARK  103  A    between atoms: _250  and  _252
REMARK  104  A    between atoms: _252  and  _253
REMARK  105  A    between atoms: _252  and  _255
REMARK  106  A    between atoms: _255  and  _256
REMARK  107  A    between atoms: _258  and  _260
REMARK  108  A    between atoms: _260  and  _261
REMARK  109  A    between atoms: _260  and  _263
REMARK  110  A    between atoms: _263  and  _264
REMARK  111  A    between atoms: _266  and  _268
REMARK  112  A    between atoms: _268  and  _269
REMARK  113  A    between atoms: _268  and  _271
REMARK  114  A    between atoms: _271  and  _272
REMARK  115  A    between atoms: _277  and  _278
REMARK  116  A    between atoms: _280  and  _282
REMARK  117  A    between atoms: _282  and  _283
REMARK  118  A    between atoms: _282  and  _285
REMARK  119  A    between atoms: _285  and  _286
REMARK  120  A    between atoms: _286  and  _287
REMARK  121  A    between atoms: _292  and  _294
REMARK  122  A    between atoms: _294  and  _295
REMARK  123  A    between atoms: _297  and  _299
REMARK  124  A    between atoms: _299  and  _300
REMARK  125  A    between atoms: _299  and  _302
REMARK  126  A    between atoms: _302  and  _303
REMARK  127  A    between atoms: _308  and  _310
REMARK  128  A    between atoms: _310  and  _311
REMARK  129  A    between atoms: _310  and  _313
REMARK  130  A    between atoms: _313  and  _314
REMARK  131  A    between atoms: _317  and  _319
REMARK  132  A    between atoms: _319  and  _320
REMARK  133  A    between atoms: _319  and  _322
REMARK  134  A    between atoms: _322  and  _323
REMARK  135  A    between atoms: _323  and  _324
REMARK  136  A    between atoms: _324  and  _325
REMARK  137  A    between atoms: _334  and  _336
REMARK  138  A    between atoms: _336  and  _337
REMARK  139  A    between atoms: _336  and  _339
REMARK  140  A    between atoms: _339  and  _340
REMARK  141  A    between atoms: _345  and  _346
REMARK  142  A    between atoms: _348  and  _350
REMARK  143  A    between atoms: _350  and  _351
REMARK  144  A    between atoms: _350  and  _353
REMARK  145  A    between atoms: _353  and  _354
REMARK  146  A    between atoms: _357  and  _359
REMARK  147  A    between atoms: _359  and  _360
REMARK  148  A    between atoms: _359  and  _362
REMARK  149  A    between atoms: _365  and  _367
REMARK  150  A    between atoms: _367  and  _368
REMARK  151  A    between atoms: _367  and  _370
REMARK  152  A    between atoms: _370  and  _371
REMARK  153  A    between atoms: _373  and  _375
REMARK  154  A    between atoms: _375  and  _376
REMARK  155  A    between atoms: _375  and  _378
REMARK  156  A    between atoms: _378  and  _379
REMARK  157  A    between atoms: _379  and  _380
REMARK  158  A    between atoms: _382  and  _384
REMARK  159  A    between atoms: _384  and  _385
REMARK  160  A    between atoms: _387  and  _389
REMARK  161  A    between atoms: _389  and  _390
REMARK  162  A    between atoms: _389  and  _392
REMARK  163  A    between atoms: _392  and  _393
REMARK  164  A    between atoms: _396  and  _398
REMARK  165  A    between atoms: _398  and  _399
REMARK  166  A    between atoms: _398  and  _401
REMARK  167  A    between atoms: _401  and  _402
REMARK  168  A    between atoms: _408  and  _410
REMARK  169  A    between atoms: _410  and  _411
REMARK  170  A    between atoms: _410  and  _413
REMARK  171  A    between atoms: _413  and  _414
REMARK  172  A    between atoms: _417  and  _419
REMARK  173  A    between atoms: _419  and  _420
REMARK  174  A    between atoms: _422  and  _424
REMARK  175  A    between atoms: _424  and  _425
REMARK  176  A    between atoms: _424  and  _427
REMARK  177  A    between atoms: _427  and  _428
REMARK  178  A    between atoms: _431  and  _433
REMARK  179  A    between atoms: _433  and  _434
REMARK  180  A    between atoms: _436  and  _438
REMARK  181  A    between atoms: _438  and  _439
REMARK  182  A    between atoms: _438  and  _441
REMARK  183  A    between atoms: _441  and  _442
REMARK  184  A    between atoms: _442  and  _443
REMARK  185  A    between atoms: _446  and  _448
REMARK  186  A    between atoms: _448  and  _449
REMARK  187  A    between atoms: _448  and  _451
REMARK  188  A    between atoms: _451  and  _452
REMARK  189  A    between atoms: _452  and  _453
REMARK  190  A    between atoms: _455  and  _457
REMARK  191  A    between atoms: _457  and  _458
REMARK  192  A    between atoms: _457  and  _460
REMARK  193  A    between atoms: _460  and  _461
REMARK  194  A    between atoms: _464  and  _466
REMARK  195  A    between atoms: _466  and  _467
REMARK  196  A    between atoms: _466  and  _469
REMARK  197  A    between atoms: _469  and  _470
REMARK  198  A    between atoms: _470  and  _471
REMARK  199  A    between atoms: _474  and  _476
REMARK  200  A    between atoms: _476  and  _477
REMARK  201  A    between atoms: _476  and  _479
REMARK  202  A    between atoms: _479  and  _480
REMARK  203  A    between atoms: _480  and  _481
REMARK  204  A    between atoms: _484  and  _486
REMARK  205  A    between atoms: _486  and  _487
REMARK  206  A    between atoms: _486  and  _489
REMARK  207  A    between atoms: _489  and  _490
REMARK  208  A    between atoms: _492  and  _494
REMARK  209  A    between atoms: _494  and  _495
REMARK  210  A    between atoms: _494  and  _497
REMARK  211  A    between atoms: _497  and  _498
REMARK  212  A    between atoms: _501  and  _503
REMARK  213  A    between atoms: _503  and  _504
REMARK  214  A    between atoms: _503  and  _506
REMARK  215  A    between atoms: _506  and  _507
REMARK  216  A    between atoms: _512  and  _514
REMARK  217  A    between atoms: _514  and  _515
REMARK  218  A    between atoms: _514  and  _517
REMARK  219  A    between atoms: _519  and  _521
REMARK  220  A    between atoms: _525  and  _527
REMARK  221  A    between atoms: _532  and  _535
REMARK  222  A    between atoms: _535  and  _536
REMARK  223  A    between atoms: _541  and  _544
REMARK  224  A    between atoms: _542  and  _551
REMARK  225  A    between atoms: _544  and  _545
REMARK  226  A    between atoms: _545  and  _546
REMARK  227  A    between atoms: _551  and  _553
REMARK  228  A    between atoms: _553  and  _554
REMARK  229  A    between atoms: _553  and  _556
REMARK  230  A    between atoms: _556  and  _557
REMARK  231  A    between atoms: _557  and  _558
REMARK  232  A    between atoms: _558  and  _559
REMARK  233  A    between atoms: _568  and  _570
REMARK  234  A    between atoms: _570  and  _571
REMARK  235  A    between atoms: _570  and  _573
REMARK  236  A    between atoms: _573  and  _574
REMARK  237  A    between atoms: _577  and  _579
REMARK  238  A    between atoms: _579  and  _580
REMARK  239  A    between atoms: _579  and  _582
REMARK  240  A    between atoms: _582  and  _583
REMARK  241  A    between atoms: _586  and  _588
REMARK  242  A    between atoms: _588  and  _589
REMARK  243  A    between atoms: _592  and  _593
REMARK  244  A    between atoms: _598  and  _600
REMARK  245  A    between atoms: _600  and  _601
REMARK  246  A    between atoms: _600  and  _603
REMARK  247  A    between atoms: _606  and  _608
REMARK  248  A    between atoms: _608  and  _609
REMARK  249  A    between atoms: _608  and  _611
REMARK  250  A    between atoms: _611  and  _612
REMARK  251  A    between atoms: _612  and  _613
REMARK  252  A    between atoms: _618  and  _620
REMARK  253  A    between atoms: _620  and  _621
REMARK  254  A    between atoms: _620  and  _623
REMARK  255  A    between atoms: _623  and  _624
REMARK  256  A    between atoms: _627  and  _629
REMARK  257  A    between atoms: _629  and  _630
REMARK  258  A    between atoms: _629  and  _632
REMARK  259  A    between atoms: _632  and  _633
REMARK  260  A    between atoms: _633  and  _634
REMARK  261  A    between atoms: _634  and  _635
REMARK  262  A    between atoms: _635  and  _636
REMARK  263  A    between atoms: _640  and  _642
REMARK  264  A    between atoms: _642  and  _643
REMARK  265  A    between atoms: _645  and  _647
REMARK  266  A    between atoms: _647  and  _648
REMARK  267  A    between atoms: _647  and  _650
REMARK  268  A    between atoms: _650  and  _651
REMARK                            x       y       z     vdW  Elec       q    Type
REMARK                         _______ _______ _______ _____ _____    ______ ____
ROOT
ATOM      1  O   HOH     1      27.945 -38.199  17.164  0.00  0.00    +0.000 OA
ENDROOT
TORSDOF 0
REMARK  Name = ../refined-set-2016/1rp7/1rp7_pocket.pdb
REMARK  268 active torsions:
REMARK  status: ('A' for Active; 'I' for Inactive)
REMARK    1  A    between atoms: _1  and  _3
REMARK    2  A    between atoms: _3  and  _4
REMARK    3  A    between atoms: _7  and  _9
REMARK    4  A    between atoms: _9  and  _10
REMARK    5  A    between atoms: _9  and  _12
REMARK    6  A    between atoms: _12  and  _13
REMARK    7  A    between atoms: _16  and  _18
REMARK    8  A    between atoms: _18  and  _19
REMARK    9  A    between atoms: _18  and  _21
REMARK   10  A    between atoms: _21  and  _22
REMARK   11  A    between atoms: _22  and  _23
REMARK   12  A    between atoms: _26  and  _28
REMARK   13  A    between atoms: _28  and  _29
REMARK   14  A    between atoms: _28  and  _31
REMARK   15  A    between atoms: _31  and  _32
REMARK   16  A    between atoms: _35  and  _37
REMARK   17  A    between atoms: _37  and  _38
REMARK   18  A    between atoms: _40  and  _42
REMARK   19  A    between atoms: _42  and  _43
REMARK   20  A    between atoms: _42  and  _45
REMARK   21  A    between atoms: _45  and  _46
REMARK   22  A    between atoms: _49  and  _51
REMARK   23  A    between atoms: _51  and  _52
REMARK   24  A    between atoms: _51  and  _54
REMARK   25  A    between atoms: _54  and  _55
REMARK   26  A    between atoms: _60  and  _62
REMARK   27  A    between atoms: _62  and  _63
REMARK   28  A    between atoms: _62  and  _65
REMARK   29  A    between atoms: _65  and  _66
REMARK   30  A    between atoms: _66  and  _67
REMARK   31  A    between atoms: _70  and  _72
REMARK   32  A    between atoms: _72  and  _73
REMARK   33  A    between atoms: _72  and  _75
REMARK   34  A    between atoms: _75  and  _76
REMARK   35  A    between atoms: _79  and  _81
REMARK   36  A    between atoms: _81  and  _82
REMARK   37  A    between atoms: _81  and  _84
REMARK   38  A    between atoms: _84  and  _85
REMARK   39  A    between atoms: _90  and  _91
REMARK   40  A    between atoms: _93  and  _95
REMARK   41  A    between atoms: _95  and  _96
REMARK   42  A    between atoms: _95  and  _98
REMARK   43  A    between atoms: _98  and  _99
REMARK   44  A    between atoms: _104  and  _105
REMARK   45  A    between atoms: _107  and  _109
REMARK   46  A    between atoms: _109  and  _110
REMARK   47  A    between atoms: _109  and  _112
REMARK   48  A    between atoms: _112  and  _113
REMARK   49  A    between atoms: _118  and  _119
REMARK   50  A    between atoms: _121  and  _123
REMARK   51  A    between atoms: _123  and  _124
REMARK   52  A    between atoms: _123  and  _126
REMARK   53  A    between atoms: _126  and  _127
REMARK   54  A    between atoms: _127  and  _128
REMARK   55  A    between atoms: _130  and  _132
REMARK   56  A    between atoms: _132  and  _133
REMARK   57  A    between atoms: _132  and  _135
REMARK   58  A    between atoms: _135  and  _136
REMARK   59  A    between atoms: _142  and  _144
REMARK   60  A    between atoms: _144  and  _145
REMARK   61  A    between atoms: _144  and  _147
REMARK   62  A    between atoms: _147  and  _148
REMARK   63  A    between atoms: _148  and  _149
REMARK   64  A    between atoms: _149  and  _150
REMARK   65  A    between atoms: _159  and  _161
REMARK   66  A    between atoms: _161  and  _162
REMARK   67  A    between atoms: _161  and  _164
REMARK   68  A    between atoms: _164  and  _165
REMARK   69  A    between atoms: _165  and  _166
REMARK   70  A    between atoms: _169  and  _171
REMARK   71  A    between atoms: _171  and  _172
REMARK   72  A    between atoms: _171  and  _174
REMARK   73  A    between atoms: _174  and  _175
REMARK   74  A    between atoms: _175  and  _176
REMARK   75  A    between atoms: _181  and  _183
REMARK   76  A    between atoms: _183  and  _184
REMARK   77  A    between atoms: _183  and  _186
REMARK   78  A    between atoms: _186  and  _187
REMARK   79  A    between atoms: _192  and  _194
REMARK   80  A    between atoms: _194  and  _195
REMARK   81  A    between atoms: _194  and  _197
REMARK   82  A    between atoms: _197  and  _198
REMARK   83  A    between atoms: _203  and  _205
REMARK   84  A    between atoms: _205  and  _206
REMARK   85  A    between atoms: _205  and  _208
REMARK   86  A    between atoms: _208  and  _209
REMARK   87  A    between atoms: _209  and  _210
REMARK   88  A    between atoms: _212  and  _214
REMARK   89  A    between atoms: _214  and  _215
REMARK   90  A    between atoms: _218  and  _220
REMARK   91  A    between atoms: _220  and  _221
REMARK   92  A    between atoms: _220  and  _223
REMARK   93  A    between atoms: _223  and  _224
REMARK   94  A    between atoms: _226  and  _228
REMARK   95  A    between atoms: _228  and  _229
REMARK   96  A    between atoms: _228  and  _231
REMARK   97  A    between atoms: _231  and  _232
REMARK   98  A    between atoms: _238  and  _240
REMARK   99  A    between atoms: _240  and  _241
REMARK  100  A    between atoms: _240  and  _243
REMARK  101  A    between atoms: _243  and  _244
REMARK  102  A    between atoms: _244  and  _245
REMARK  103  A    between atoms: _250  and  _252
REMARK  104  A    between atoms: _252  and  _253
REMARK  105  A    between atoms: _252  and  _255
REMARK  106  A    between atoms: _255  and  _256
REMARK  107  A    between atoms: _258  and  _260
REMARK  108  A    between atoms: _260  and  _261
REMARK  109  A    between atoms: _260  and  _263
REMARK  110  A    between atoms: _263  and  _264
REMARK  111  A    between atoms: _266  and  _268
REMARK  112  A    between atoms: _268  and  _269
REMARK  113  A    between atoms: _268  and  _271
REMARK  114  A    between atoms: _271  and  _272
REMARK  115  A    between atoms: _277  and  _278
REMARK  116  A    between atoms: _280  and  _282
REMARK  117  A    between atoms: _282  and  _283
REMARK  118  A    between atoms: _282  and  _285
REMARK  119  A    between atoms: _285  and  _286
REMARK  120  A    between atoms: _286  and  _287
REMARK  121  A    between atoms: _292  and  _294
REMARK  122  A    between atoms: _294  and  _295
REMARK  123  A    between atoms: _297  and  _299
REMARK  124  A    between atoms: _299  and  _300
REMARK  125  A    between atoms: _299  and  _302
REMARK  126  A    between atoms: _302  and  _303
REMARK  127  A    between atoms: _308  and  _310
REMARK  128  A    between atoms: _310  and  _311
REMARK  129  A    between atoms: _310  and  _313
REMARK  130  A    between atoms: _313  and  _314
REMARK  131  A    between atoms: _317  and  _319
REMARK  132  A    between atoms: _319  and  _320
REMARK  133  A    between atoms: _319  and  _322
REMARK  134  A    between atoms: _322  and  _323
REMARK  135  A    between atoms: _323  and  _324
REMARK  136  A    between atoms: _324  and  _325
REMARK  137  A    between atoms: _334  and  _336
REMARK  138  A    between atoms: _336  and  _337
REMARK  139  A    between atoms: _336  and  _339
REMARK  140  A    between atoms: _339  and  _340
REMARK  141  A    between atoms: _345  and  _346
REMARK  142  A    between atoms: _348  and  _350
REMARK  143  A    between atoms: _350  and  _351
REMARK  144  A    between atoms: _350  and  _353
REMARK  145  A    between atoms: _353  and  _354
REMARK  146  A    between atoms: _357  and  _359
REMARK  147  A    between atoms: _359  and  _360
REMARK  148  A    between atoms: _359  and  _362
REMARK  149  A    between atoms: _365  and  _367
REMARK  150  A    between atoms: _367  and  _368
REMARK  151  A    between atoms: _367  and  _370
REMARK  152  A    between atoms: _370  and  _371
REMARK  153  A    between atoms: _373  and  _375
REMARK  154  A    between atoms: _375  and  _376
REMARK  155  A    between atoms: _375  and  _378
REMARK  156  A    between atoms: _378  and  _379
REMARK  157  A    between atoms: _379  and  _380
REMARK  158  A    between atoms: _382  and  _384
REMARK  159  A    between atoms: _384  and  _385
REMARK  160  A    between atoms: _387  and  _389
REMARK  161  A    between atoms: _389  and  _390
REMARK  162  A    between atoms: _389  and  _392
REMARK  163  A    between atoms: _392  and  _393
REMARK  164  A    between atoms: _396  and  _398
REMARK  165  A    between atoms: _398  and  _399
REMARK  166  A    between atoms: _398  and  _401
REMARK  167  A    between atoms: _401  and  _402
REMARK  168  A    between atoms: _408  and  _410
REMARK  169  A    between atoms: _410  and  _411
REMARK  170  A    between atoms: _410  and  _413
REMARK  171  A    between atoms: _413  and  _414
REMARK  172  A    between atoms: _417  and  _419
REMARK  173  A    between atoms: _419  and  _420
REMARK  174  A    between atoms: _422  and  _424
REMARK  175  A    between atoms: _424  and  _425
REMARK  176  A    between atoms: _424  and  _427
REMARK  177  A    between atoms: _427  and  _428
REMARK  178  A    between atoms: _431  and  _433
REMARK  179  A    between atoms: _433  and  _434
REMARK  180  A    between atoms: _436  and  _438
REMARK  181  A    between atoms: _438  and  _439
REMARK  182  A    between atoms: _438  and  _441
REMARK  183  A    between atoms: _441  and  _442
REMARK  184  A    between atoms: _442  and  _443
REMARK  185  A    between atoms: _446  and  _448
REMARK  186  A    between atoms: _448  and  _449
REMARK  187  A    between atoms: _448  and  _451
REMARK  188  A    between atoms: _451  and  _452
REMARK  189  A    between atoms: _452  and  _453
REMARK  190  A    between atoms: _455  and  _457
REMARK  191  A    between atoms: _457  and  _458
REMARK  192  A    between atoms: _457  and  _460
REMARK  193  A    between atoms: _460  and  _461
REMARK  194  A    between atoms: _464  and  _466
REMARK  195  A    between atoms: _466  and  _467
REMARK  196  A    between atoms: _466  and  _469
REMARK  197  A    between atoms: _469  and  _470
REMARK  198  A    between atoms: _470  and  _471
REMARK  199  A    between atoms: _474  and  _476
REMARK  200  A    between atoms: _476  and  _477
REMARK  201  A    between atoms: _476  and  _479
REMARK  202  A    between atoms: _479  and  _480
REMARK  203  A    between atoms: _480  and  _481
REMARK  204  A    between atoms: _484  and  _486
REMARK  205  A    between atoms: _486  and  _487
REMARK  206  A    between atoms: _486  and  _489
REMARK  207  A    between atoms: _489  and  _490
REMARK  208  A    between atoms: _492  and  _494
REMARK  209  A    between atoms: _494  and  _495
REMARK  210  A    between atoms: _494  and  _497
REMARK  211  A    between atoms: _497  and  _498
REMARK  212  A    between atoms: _501  and  _503
REMARK  213  A    between atoms: _503  and  _504
REMARK  214  A    between atoms: _503  and  _506
REMARK  215  A    between atoms: _506  and  _507
REMARK  216  A    between atoms: _512  and  _514
REMARK  217  A    between atoms: _514  and  _515
REMARK  218  A    between atoms: _514  and  _517
REMARK  219  A    between atoms: _519  and  _521
REMARK  220  A    between atoms: _525  and  _527
REMARK  221  A    between atoms: _532  and  _535
REMARK  222  A    between atoms: _535  and  _536
REMARK  223  A    between atoms: _541  and  _544
REMARK  224  A    between atoms: _542  and  _551
REMARK  225  A    between atoms: _544  and  _545
REMARK  226  A    between atoms: _545  and  _546
REMARK  227  A    between atoms: _551  and  _553
REMARK  228  A    between atoms: _553  and  _554
REMARK  229  A    between atoms: _553  and  _556
REMARK  230  A    between atoms: _556  and  _557
REMARK  231  A    between atoms: _557  and  _558
REMARK  232  A    between atoms: _558  and  _559
REMARK  233  A    between atoms: _568  and  _570
REMARK  234  A    between atoms: _570  and  _571
REMARK  235  A    between atoms: _570  and  _573
REMARK  236  A    between atoms: _573  and  _574
REMARK  237  A    between atoms: _577  and  _579
REMARK  238  A    between atoms: _579  and  _580
REMARK  239  A    between atoms: _579  and  _582
REMARK  240  A    between atoms: _582  and  _583
REMARK  241  A    between atoms: _586  and  _588
REMARK  242  A    between atoms: _588  and  _589
REMARK  243  A    between atoms: _592  and  _593
REMARK  244  A    between atoms: _598  and  _600
REMARK  245  A    between atoms: _600  and  _601
REMARK  246  A    between atoms: _600  and  _603
REMARK  247  A    between atoms: _606  and  _608
REMARK  248  A    between atoms: _608  and  _609
REMARK  249  A    between atoms: _608  and  _611
REMARK  250  A    between atoms: _611  and  _612
REMARK  251  A    between atoms: _612  and  _613
REMARK  252  A    between atoms: _618  and  _620
REMARK  253  A    between atoms: _620  and  _621
REMARK  254  A    between atoms: _620  and  _623
REMARK  255  A    between atoms: _623  and  _624
REMARK  256  A    between atoms: _627  and  _629
REMARK  257  A    between atoms: _629  and  _630
REMARK  258  A    between atoms: _629  and  _632
REMARK  259  A    between atoms: _632  and  _633
REMARK  260  A    between atoms: _633  and  _634
REMARK  261  A    between atoms: _634  and  _635
REMARK  262  A    between atoms: _635  and  _636
REMARK  263  A    between atoms: _640  and  _642
REMARK  264  A    between atoms: _642  and  _643
REMARK  265  A    between atoms: _645  and  _647
REMARK  266  A    between atoms: _647  and  _648
REMARK  267  A    between atoms: _647  and  _650
REMARK  268  A    between atoms: _650  and  _651
REMARK                            x       y       z     vdW  Elec       q    Type
REMARK                         _______ _______ _______ _____ _____    ______ ____
ROOT
ATOM      1  O   HOH     1      23.807 -42.681   5.021  0.00  0.00    +0.000 OA
ENDROOT
TORSDOF 0
REMARK  Name = ../refined-set-2016/1rp7/1rp7_pocket.pdb
REMARK  268 active torsions:
REMARK  status: ('A' for Active; 'I' for Inactive)
REMARK    1  A    between atoms: _1  and  _3
REMARK    2  A    between atoms: _3  and  _4
REMARK    3  A    between atoms: _7  and  _9
REMARK    4  A    between atoms: _9  and  _10
REMARK    5  A    between atoms: _9  and  _12
REMARK    6  A    between atoms: _12  and  _13
REMARK    7  A    between atoms: _16  and  _18
REMARK    8  A    between atoms: _18  and  _19
REMARK    9  A    between atoms: _18  and  _21
REMARK   10  A    between atoms: _21  and  _22
REMARK   11  A    between atoms: _22  and  _23
REMARK   12  A    between atoms: _26  and  _28
REMARK   13  A    between atoms: _28  and  _29
REMARK   14  A    between atoms: _28  and  _31
REMARK   15  A    between atoms: _31  and  _32
REMARK   16  A    between atoms: _35  and  _37
REMARK   17  A    between atoms: _37  and  _38
REMARK   18  A    between atoms: _40  and  _42
REMARK   19  A    between atoms: _42  and  _43
REMARK   20  A    between atoms: _42  and  _45
REMARK   21  A    between atoms: _45  and  _46
REMARK   22  A    between atoms: _49  and  _51
REMARK   23  A    between atoms: _51  and  _52
REMARK   24  A    between atoms: _51  and  _54
REMARK   25  A    between atoms: _54  and  _55
REMARK   26  A    between atoms: _60  and  _62
REMARK   27  A    between atoms: _62  and  _63
REMARK   28  A    between atoms: _62  and  _65
REMARK   29  A    between atoms: _65  and  _66
REMARK   30  A    between atoms: _66  and  _67
REMARK   31  A    between atoms: _70  and  _72
REMARK   32  A    between atoms: _72  and  _73
REMARK   33  A    between atoms: _72  and  _75
REMARK   34  A    between atoms: _75  and  _76
REMARK   35  A    between atoms: _79  and  _81
REMARK   36  A    between atoms: _81  and  _82
REMARK   37  A    between atoms: _81  and  _84
REMARK   38  A    between atoms: _84  and  _85
REMARK   39  A    between atoms: _90  and  _91
REMARK   40  A    between atoms: _93  and  _95
REMARK   41  A    between atoms: _95  and  _96
REMARK   42  A    between atoms: _95  and  _98
REMARK   43  A    between atoms: _98  and  _99
REMARK   44  A    between atoms: _104  and  _105
REMARK   45  A    between atoms: _107  and  _109
REMARK   46  A    between atoms: _109  and  _110
REMARK   47  A    between atoms: _109  and  _112
REMARK   48  A    between atoms: _112  and  _113
REMARK   49  A    between atoms: _118  and  _119
REMARK   50  A    between atoms: _121  and  _123
REMARK   51  A    between atoms: _123  and  _124
REMARK   52  A    between atoms: _123  and  _126
REMARK   53  A    between atoms: _126  and  _127
REMARK   54  A    between atoms: _127  and  _128
REMARK   55  A    between atoms: _130  and  _132
REMARK   56  A    between atoms: _132  and  _133
REMARK   57  A    between atoms: _132  and  _135
REMARK   58  A    between atoms: _135  and  _136
REMARK   59  A    between atoms: _142  and  _144
REMARK   60  A    between atoms: _144  and  _145
REMARK   61  A    between atoms: _144  and  _147
REMARK   62  A    between atoms: _147  and  _148
REMARK   63  A    between atoms: _148  and  _149
REMARK   64  A    between atoms: _149  and  _150
REMARK   65  A    between atoms: _159  and  _161
REMARK   66  A    between atoms: _161  and  _162
REMARK   67  A    between atoms: _161  and  _164
REMARK   68  A    between atoms: _164  and  _165
REMARK   69  A    between atoms: _165  and  _166
REMARK   70  A    between atoms: _169  and  _171
REMARK   71  A    between atoms: _171  and  _172
REMARK   72  A    between atoms: _171  and  _174
REMARK   73  A    between atoms: _174  and  _175
REMARK   74  A    between atoms: _175  and  _176
REMARK   75  A    between atoms: _181  and  _183
REMARK   76  A    between atoms: _183  and  _184
REMARK   77  A    between atoms: _183  and  _186
REMARK   78  A    between atoms: _186  and  _187
REMARK   79  A    between atoms: _192  and  _194
REMARK   80  A    between atoms: _194  and  _195
REMARK   81  A    between atoms: _194  and  _197
REMARK   82  A    between atoms: _197  and  _198
REMARK   83  A    between atoms: _203  and  _205
REMARK   84  A    between atoms: _205  and  _206
REMARK   85  A    between atoms: _205  and  _208
REMARK   86  A    between atoms: _208  and  _209
REMARK   87  A    between atoms: _209  and  _210
REMARK   88  A    between atoms: _212  and  _214
REMARK   89  A    between atoms: _214  and  _215
REMARK   90  A    between atoms: _218  and  _220
REMARK   91  A    between atoms: _220  and  _221
REMARK   92  A    between atoms: _220  and  _223
REMARK   93  A    between atoms: _223  and  _224
REMARK   94  A    between atoms: _226  and  _228
REMARK   95  A    between atoms: _228  and  _229
REMARK   96  A    between atoms: _228  and  _231
REMARK   97  A    between atoms: _231  and  _232
REMARK   98  A    between atoms: _238  and  _240
REMARK   99  A    between atoms: _240  and  _241
REMARK  100  A    between atoms: _240  and  _243
REMARK  101  A    between atoms: _243  and  _244
REMARK  102  A    between atoms: _244  and  _245
REMARK  103  A    between atoms: _250  and  _252
REMARK  104  A    between atoms: _252  and  _253
REMARK  105  A    between atoms: _252  and  _255
REMARK  106  A    between atoms: _255  and  _256
REMARK  107  A    between atoms: _258  and  _260
REMARK  108  A    between atoms: _260  and  _261
REMARK  109  A    between atoms: _260  and  _263
REMARK  110  A    between atoms: _263  and  _264
REMARK  111  A    between atoms: _266  and  _268
REMARK  112  A    between atoms: _268  and  _269
REMARK  113  A    between atoms: _268  and  _271
REMARK  114  A    between atoms: _271  and  _272
REMARK  115  A    between atoms: _277  and  _278
REMARK  116  A    between atoms: _280  and  _282
REMARK  117  A    between atoms: _282  and  _283
REMARK  118  A    between atoms: _282  and  _285
REMARK  119  A    between atoms: _285  and  _286
REMARK  120  A    between atoms: _286  and  _287
REMARK  121  A    between atoms: _292  and  _294
REMARK  122  A    between atoms: _294  and  _295
REMARK  123  A    between atoms: _297  and  _299
REMARK  124  A    between atoms: _299  and  _300
REMARK  125  A    between atoms: _299  and  _302
REMARK  126  A    between atoms: _302  and  _303
REMARK  127  A    between atoms: _308  and  _310
REMARK  128  A    between atoms: _310  and  _311
REMARK  129  A    between atoms: _310  and  _313
REMARK  130  A    between atoms: _313  and  _314
REMARK  131  A    between atoms: _317  and  _319
REMARK  132  A    between atoms: _319  and  _320
REMARK  133  A    between atoms: _319  and  _322
REMARK  134  A    between atoms: _322  and  _323
REMARK  135  A    between atoms: _323  and  _324
REMARK  136  A    between atoms: _324  and  _325
REMARK  137  A    between atoms: _334  and  _336
REMARK  138  A    between atoms: _336  and  _337
REMARK  139  A    between atoms: _336  and  _339
REMARK  140  A    between atoms: _339  and  _340
REMARK  141  A    between atoms: _345  and  _346
REMARK  142  A    between atoms: _348  and  _350
REMARK  143  A    between atoms: _350  and  _351
REMARK  144  A    between atoms: _350  and  _353
REMARK  145  A    between atoms: _353  and  _354
REMARK  146  A    between atoms: _357  and  _359
REMARK  147  A    between atoms: _359  and  _360
REMARK  148  A    between atoms: _359  and  _362
REMARK  149  A    between atoms: _365  and  _367
REMARK  150  A    between atoms: _367  and  _368
REMARK  151  A    between atoms: _367  and  _370
REMARK  152  A    between atoms: _370  and  _371
REMARK  153  A    between atoms: _373  and  _375
REMARK  154  A    between atoms: _375  and  _376
REMARK  155  A    between atoms: _375  and  _378
REMARK  156  A    between atoms: _378  and  _379
REMARK  157  A    between atoms: _379  and  _380
REMARK  158  A    between atoms: _382  and  _384
REMARK  159  A    between atoms: _384  and  _385
REMARK  160  A    between atoms: _387  and  _389
REMARK  161  A    between atoms: _389  and  _390
REMARK  162  A    between atoms: _389  and  _392
REMARK  163  A    between atoms: _392  and  _393
REMARK  164  A    between atoms: _396  and  _398
REMARK  165  A    between atoms: _398  and  _399
REMARK  166  A    between atoms: _398  and  _401
REMARK  167  A    between atoms: _401  and  _402
REMARK  168  A    between atoms: _408  and  _410
REMARK  169  A    between atoms: _410  and  _411
REMARK  170  A    between atoms: _410  and  _413
REMARK  171  A    between atoms: _413  and  _414
REMARK  172  A    between atoms: _417  and  _419
REMARK  173  A    between atoms: _419  and  _420
REMARK  174  A    between atoms: _422  and  _424
REMARK  175  A    between atoms: _424  and  _425
REMARK  176  A    between atoms: _424  and  _427
REMARK  177  A    between atoms: _427  and  _428
REMARK  178  A    between atoms: _431  and  _433
REMARK  179  A    between atoms: _433  and  _434
REMARK  180  A    between atoms: _436  and  _438
REMARK  181  A    between atoms: _438  and  _439
REMARK  182  A    between atoms: _438  and  _441
REMARK  183  A    between atoms: _441  and  _442
REMARK  184  A    between atoms: _442  and  _443
REMARK  185  A    between atoms: _446  and  _448
REMARK  186  A    between atoms: _448  and  _449
REMARK  187  A    between atoms: _448  and  _451
REMARK  188  A    between atoms: _451  and  _452
REMARK  189  A    between atoms: _452  and  _453
REMARK  190  A    between atoms: _455  and  _457
REMARK  191  A    between atoms: _457  and  _458
REMARK  192  A    between atoms: _457  and  _460
REMARK  193  A    between atoms: _460  and  _461
REMARK  194  A    between atoms: _464  and  _466
REMARK  195  A    between atoms: _466  and  _467
REMARK  196  A    between atoms: _466  and  _469
REMARK  197  A    between atoms: _469  and  _470
REMARK  198  A    between atoms: _470  and  _471
REMARK  199  A    between atoms: _474  and  _476
REMARK  200  A    between atoms: _476  and  _477
REMARK  201  A    between atoms: _476  and  _479
REMARK  202  A    between atoms: _479  and  _480
REMARK  203  A    between atoms: _480  and  _481
REMARK  204  A    between atoms: _484  and  _486
REMARK  205  A    between atoms: _486  and  _487
REMARK  206  A    between atoms: _486  and  _489
REMARK  207  A    between atoms: _489  and  _490
REMARK  208  A    between atoms: _492  and  _494
REMARK  209  A    between atoms: _494  and  _495
REMARK  210  A    between atoms: _494  and  _497
REMARK  211  A    between atoms: _497  and  _498
REMARK  212  A    between atoms: _501  and  _503
REMARK  213  A    between atoms: _503  and  _504
REMARK  214  A    between atoms: _503  and  _506
REMARK  215  A    between atoms: _506  and  _507
REMARK  216  A    between atoms: _512  and  _514
REMARK  217  A    between atoms: _514  and  _515
REMARK  218  A    between atoms: _514  and  _517
REMARK  219  A    between atoms: _519  and  _521
REMARK  220  A    between atoms: _525  and  _527
REMARK  221  A    between atoms: _532  and  _535
REMARK  222  A    between atoms: _535  and  _536
REMARK  223  A    between atoms: _541  and  _544
REMARK  224  A    between atoms: _542  and  _551
REMARK  225  A    between atoms: _544  and  _545
REMARK  226  A    between atoms: _545  and  _546
REMARK  227  A    between atoms: _551  and  _553
REMARK  228  A    between atoms: _553  and  _554
REMARK  229  A    between atoms: _553  and  _556
REMARK  230  A    between atoms: _556  and  _557
REMARK  231  A    between atoms: _557  and  _558
REMARK  232  A    between atoms: _558  and  _559
REMARK  233  A    between atoms: _568  and  _570
REMARK  234  A    between atoms: _570  and  _571
REMARK  235  A    between atoms: _570  and  _573
REMARK  236  A    between atoms: _573  and  _574
REMARK  237  A    between atoms: _577  and  _579
REMARK  238  A    between atoms: _579  and  _580
REMARK  239  A    between atoms: _579  and  _582
REMARK  240  A    between atoms: _582  and  _583
REMARK  241  A    between atoms: _586  and  _588
REMARK  242  A    between atoms: _588  and  _589
REMARK  243  A    between atoms: _592  and  _593
REMARK  244  A    between atoms: _598  and  _600
REMARK  245  A    between atoms: _600  and  _601
REMARK  246  A    between atoms: _600  and  _603
REMARK  247  A    between atoms: _606  and  _608
REMARK  248  A    between atoms: _608  and  _609
REMARK  249  A    between atoms: _608  and  _611
REMARK  250  A    between atoms: _611  and  _612
REMARK  251  A    between atoms: _612  and  _613
REMARK  252  A    between atoms: _618  and  _620
REMARK  253  A    between atoms: _620  and  _621
REMARK  254  A    between atoms: _620  and  _623
REMARK  255  A    between atoms: _623  and  _624
REMARK  256  A    between atoms: _627  and  _629
REMARK  257  A    between atoms: _629  and  _630
REMARK  258  A    between atoms: _629  and  _632
REMARK  259  A    between atoms: _632  and  _633
REMARK  260  A    between atoms: _633  and  _634
REMARK  261  A    between atoms: _634  and  _635
REMARK  262  A    between atoms: _635  and  _636
REMARK  263  A    between atoms: _640  and  _642
REMARK  264  A    between atoms: _642  and  _643
REMARK  265  A    between atoms: _645  and  _647
REMARK  266  A    between atoms: _647  and  _648
REMARK  267  A    between atoms: _647  and  _650
REMARK  268  A    between atoms: _650  and  _651
REMARK                            x       y       z     vdW  Elec       q    Type
REMARK                         _______ _______ _______ _____ _____    ______ ____
ROOT
ATOM      1  O   HOH     1      28.606 -28.745  21.131  0.00  0.00    +0.000 OA
ENDROOT
TORSDOF 0
REMARK  Name = ../refined-set-2016/1rp7/1rp7_pocket.pdb
REMARK  268 active torsions:
REMARK  status: ('A' for Active; 'I' for Inactive)
REMARK    1  A    between atoms: _1  and  _3
REMARK    2  A    between atoms: _3  and  _4
REMARK    3  A    between atoms: _7  and  _9
REMARK    4  A    between atoms: _9  and  _10
REMARK    5  A    between atoms: _9  and  _12
REMARK    6  A    between atoms: _12  and  _13
REMARK    7  A    between atoms: _16  and  _18
REMARK    8  A    between atoms: _18  and  _19
REMARK    9  A    between atoms: _18  and  _21
REMARK   10  A    between atoms: _21  and  _22
REMARK   11  A    between atoms: _22  and  _23
REMARK   12  A    between atoms: _26  and  _28
REMARK   13  A    between atoms: _28  and  _29
REMARK   14  A    between atoms: _28  and  _31
REMARK   15  A    between atoms: _31  and  _32
REMARK   16  A    between atoms: _35  and  _37
REMARK   17  A    between atoms: _37  and  _38
REMARK   18  A    between atoms: _40  and  _42
REMARK   19  A    between atoms: _42  and  _43
REMARK   20  A    between atoms: _42  and  _45
REMARK   21  A    between atoms: _45  and  _46
REMARK   22  A    between atoms: _49  and  _51
REMARK   23  A    between atoms: _51  and  _52
REMARK   24  A    between atoms: _51  and  _54
REMARK   25  A    between atoms: _54  and  _55
REMARK   26  A    between atoms: _60  and  _62
REMARK   27  A    between atoms: _62  and  _63
REMARK   28  A    between atoms: _62  and  _65
REMARK   29  A    between atoms: _65  and  _66
REMARK   30  A    between atoms: _66  and  _67
REMARK   31  A    between atoms: _70  and  _72
REMARK   32  A    between atoms: _72  and  _73
REMARK   33  A    between atoms: _72  and  _75
REMARK   34  A    between atoms: _75  and  _76
REMARK   35  A    between atoms: _79  and  _81
REMARK   36  A    between atoms: _81  and  _82
REMARK   37  A    between atoms: _81  and  _84
REMARK   38  A    between atoms: _84  and  _85
REMARK   39  A    between atoms: _90  and  _91
REMARK   40  A    between atoms: _93  and  _95
REMARK   41  A    between atoms: _95  and  _96
REMARK   42  A    between atoms: _95  and  _98
REMARK   43  A    between atoms: _98  and  _99
REMARK   44  A    between atoms: _104  and  _105
REMARK   45  A    between atoms: _107  and  _109
REMARK   46  A    between atoms: _109  and  _110
REMARK   47  A    between atoms: _109  and  _112
REMARK   48  A    between atoms: _112  and  _113
REMARK   49  A    between atoms: _118  and  _119
REMARK   50  A    between atoms: _121  and  _123
REMARK   51  A    between atoms: _123  and  _124
REMARK   52  A    between atoms: _123  and  _126
REMARK   53  A    between atoms: _126  and  _127
REMARK   54  A    between atoms: _127  and  _128
REMARK   55  A    between atoms: _130  and  _132
REMARK   56  A    between atoms: _132  and  _133
REMARK   57  A    between atoms: _132  and  _135
REMARK   58  A    between atoms: _135  and  _136
REMARK   59  A    between atoms: _142  and  _144
REMARK   60  A    between atoms: _144  and  _145
REMARK   61  A    between atoms: _144  and  _147
REMARK   62  A    between atoms: _147  and  _148
REMARK   63  A    between atoms: _148  and  _149
REMARK   64  A    between atoms: _149  and  _150
REMARK   65  A    between atoms: _159  and  _161
REMARK   66  A    between atoms: _161  and  _162
REMARK   67  A    between atoms: _161  and  _164
REMARK   68  A    between atoms: _164  and  _165
REMARK   69  A    between atoms: _165  and  _166
REMARK   70  A    between atoms: _169  and  _171
REMARK   71  A    between atoms: _171  and  _172
REMARK   72  A    between atoms: _171  and  _174
REMARK   73  A    between atoms: _174  and  _175
REMARK   74  A    between atoms: _175  and  _176
REMARK   75  A    between atoms: _181  and  _183
REMARK   76  A    between atoms: _183  and  _184
REMARK   77  A    between atoms: _183  and  _186
REMARK   78  A    between atoms: _186  and  _187
REMARK   79  A    between atoms: _192  and  _194
REMARK   80  A    between atoms: _194  and  _195
REMARK   81  A    between atoms: _194  and  _197
REMARK   82  A    between atoms: _197  and  _198
REMARK   83  A    between atoms: _203  and  _205
REMARK   84  A    between atoms: _205  and  _206
REMARK   85  A    between atoms: _205  and  _208
REMARK   86  A    between atoms: _208  and  _209
REMARK   87  A    between atoms: _209  and  _210
REMARK   88  A    between atoms: _212  and  _214
REMARK   89  A    between atoms: _214  and  _215
REMARK   90  A    between atoms: _218  and  _220
REMARK   91  A    between atoms: _220  and  _221
REMARK   92  A    between atoms: _220  and  _223
REMARK   93  A    between atoms: _223  and  _224
REMARK   94  A    between atoms: _226  and  _228
REMARK   95  A    between atoms: _228  and  _229
REMARK   96  A    between atoms: _228  and  _231
REMARK   97  A    between atoms: _231  and  _232
REMARK   98  A    between atoms: _238  and  _240
REMARK   99  A    between atoms: _240  and  _241
REMARK  100  A    between atoms: _240  and  _243
REMARK  101  A    between atoms: _243  and  _244
REMARK  102  A    between atoms: _244  and  _245
REMARK  103  A    between atoms: _250  and  _252
REMARK  104  A    between atoms: _252  and  _253
REMARK  105  A    between atoms: _252  and  _255
REMARK  106  A    between atoms: _255  and  _256
REMARK  107  A    between atoms: _258  and  _260
REMARK  108  A    between atoms: _260  and  _261
REMARK  109  A    between atoms: _260  and  _263
REMARK  110  A    between atoms: _263  and  _264
REMARK  111  A    between atoms: _266  and  _268
REMARK  112  A    between atoms: _268  and  _269
REMARK  113  A    between atoms: _268  and  _271
REMARK  114  A    between atoms: _271  and  _272
REMARK  115  A    between atoms: _277  and  _278
REMARK  116  A    between atoms: _280  and  _282
REMARK  117  A    between atoms: _282  and  _283
REMARK  118  A    between atoms: _282  and  _285
REMARK  119  A    between atoms: _285  and  _286
REMARK  120  A    between atoms: _286  and  _287
REMARK  121  A    between atoms: _292  and  _294
REMARK  122  A    between atoms: _294  and  _295
REMARK  123  A    between atoms: _297  and  _299
REMARK  124  A    between atoms: _299  and  _300
REMARK  125  A    between atoms: _299  and  _302
REMARK  126  A    between atoms: _302  and  _303
REMARK  127  A    between atoms: _308  and  _310
REMARK  128  A    between atoms: _310  and  _311
REMARK  129  A    between atoms: _310  and  _313
REMARK  130  A    between atoms: _313  and  _314
REMARK  131  A    between atoms: _317  and  _319
REMARK  132  A    between atoms: _319  and  _320
REMARK  133  A    between atoms: _319  and  _322
REMARK  134  A    between atoms: _322  and  _323
REMARK  135  A    between atoms: _323  and  _324
REMARK  136  A    between atoms: _324  and  _325
REMARK  137  A    between atoms: _334  and  _336
REMARK  138  A    between atoms: _336  and  _337
REMARK  139  A    between atoms: _336  and  _339
REMARK  140  A    between atoms: _339  and  _340
REMARK  141  A    between atoms: _345  and  _346
REMARK  142  A    between atoms: _348  and  _350
REMARK  143  A    between atoms: _350  and  _351
REMARK  144  A    between atoms: _350  and  _353
REMARK  145  A    between atoms: _353  and  _354
REMARK  146  A    between atoms: _357  and  _359
REMARK  147  A    between atoms: _359  and  _360
REMARK  148  A    between atoms: _359  and  _362
REMARK  149  A    between atoms: _365  and  _367
REMARK  150  A    between atoms: _367  and  _368
REMARK  151  A    between atoms: _367  and  _370
REMARK  152  A    between atoms: _370  and  _371
REMARK  153  A    between atoms: _373  and  _375
REMARK  154  A    between atoms: _375  and  _376
REMARK  155  A    between atoms: _375  and  _378
REMARK  156  A    between atoms: _378  and  _379
REMARK  157  A    between atoms: _379  and  _380
REMARK  158  A    between atoms: _382  and  _384
REMARK  159  A    between atoms: _384  and  _385
REMARK  160  A    between atoms: _387  and  _389
REMARK  161  A    between atoms: _389  and  _390
REMARK  162  A    between atoms: _389  and  _392
REMARK  163  A    between atoms: _392  and  _393
REMARK  164  A    between atoms: _396  and  _398
REMARK  165  A    between atoms: _398  and  _399
REMARK  166  A    between atoms: _398  and  _401
REMARK  167  A    between atoms: _401  and  _402
REMARK  168  A    between atoms: _408  and  _410
REMARK  169  A    between atoms: _410  and  _411
REMARK  170  A    between atoms: _410  and  _413
REMARK  171  A    between atoms: _413  and  _414
REMARK  172  A    between atoms: _417  and  _419
REMARK  173  A    between atoms: _419  and  _420
REMARK  174  A    between atoms: _422  and  _424
REMARK  175  A    between atoms: _424  and  _425
REMARK  176  A    between atoms: _424  and  _427
REMARK  177  A    between atoms: _427  and  _428
REMARK  178  A    between atoms: _431  and  _433
REMARK  179  A    between atoms: _433  and  _434
REMARK  180  A    between atoms: _436  and  _438
REMARK  181  A    between atoms: _438  and  _439
REMARK  182  A    between atoms: _438  and  _441
REMARK  183  A    between atoms: _441  and  _442
REMARK  184  A    between atoms: _442  and  _443
REMARK  185  A    between atoms: _446  and  _448
REMARK  186  A    between atoms: _448  and  _449
REMARK  187  A    between atoms: _448  and  _451
REMARK  188  A    between atoms: _451  and  _452
REMARK  189  A    between atoms: _452  and  _453
REMARK  190  A    between atoms: _455  and  _457
REMARK  191  A    between atoms: _457  and  _458
REMARK  192  A    between atoms: _457  and  _460
REMARK  193  A    between atoms: _460  and  _461
REMARK  194  A    between atoms: _464  and  _466
REMARK  195  A    between atoms: _466  and  _467
REMARK  196  A    between atoms: _466  and  _469
REMARK  197  A    between atoms: _469  and  _470
REMARK  198  A    between atoms: _470  and  _471
REMARK  199  A    between atoms: _474  and  _476
REMARK  200  A    between atoms: _476  and  _477
REMARK  201  A    between atoms: _476  and  _479
REMARK  202  A    between atoms: _479  and  _480
REMARK  203  A    between atoms: _480  and  _481
REMARK  204  A    between atoms: _484  and  _486
REMARK  205  A    between atoms: _486  and  _487
REMARK  206  A    between atoms: _486  and  _489
REMARK  207  A    between atoms: _489  and  _490
REMARK  208  A    between atoms: _492  and  _494
REMARK  209  A    between atoms: _494  and  _495
REMARK  210  A    between atoms: _494  and  _497
REMARK  211  A    between atoms: _497  and  _498
REMARK  212  A    between atoms: _501  and  _503
REMARK  213  A    between atoms: _503  and  _504
REMARK  214  A    between atoms: _503  and  _506
REMARK  215  A    between atoms: _506  and  _507
REMARK  216  A    between atoms: _512  and  _514
REMARK  217  A    between atoms: _514  and  _515
REMARK  218  A    between atoms: _514  and  _517
REMARK  219  A    between atoms: _519  and  _521
REMARK  220  A    between atoms: _525  and  _527
REMARK  221  A    between atoms: _532  and  _535
REMARK  222  A    between atoms: _535  and  _536
REMARK  223  A    between atoms: _541  and  _544
REMARK  224  A    between atoms: _542  and  _551
REMARK  225  A    between atoms: _544  and  _545
REMARK  226  A    between atoms: _545  and  _546
REMARK  227  A    between atoms: _551  and  _553
REMARK  228  A    between atoms: _553  and  _554
REMARK  229  A    between atoms: _553  and  _556
REMARK  230  A    between atoms: _556  and  _557
REMARK  231  A    between atoms: _557  and  _558
REMARK  232  A    between atoms: _558  and  _559
REMARK  233  A    between atoms: _568  and  _570
REMARK  234  A    between atoms: _570  and  _571
REMARK  235  A    between atoms: _570  and  _573
REMARK  236  A    between atoms: _573  and  _574
REMARK  237  A    between atoms: _577  and  _579
REMARK  238  A    between atoms: _579  and  _580
REMARK  239  A    between atoms: _579  and  _582
REMARK  240  A    between atoms: _582  and  _583
REMARK  241  A    between atoms: _586  and  _588
REMARK  242  A    between atoms: _588  and  _589
REMARK  243  A    between atoms: _592  and  _593
REMARK  244  A    between atoms: _598  and  _600
REMARK  245  A    between atoms: _600  and  _601
REMARK  246  A    between atoms: _600  and  _603
REMARK  247  A    between atoms: _606  and  _608
REMARK  248  A    between atoms: _608  and  _609
REMARK  249  A    between atoms: _608  and  _611
REMARK  250  A    between atoms: _611  and  _612
REMARK  251  A    between atoms: _612  and  _613
REMARK  252  A    between atoms: _618  and  _620
REMARK  253  A    between atoms: _620  and  _621
REMARK  254  A    between atoms: _620  and  _623
REMARK  255  A    between atoms: _623  and  _624
REMARK  256  A    between atoms: _627  and  _629
REMARK  257  A    between atoms: _629  and  _630
REMARK  258  A    between atoms: _629  and  _632
REMARK  259  A    between atoms: _632  and  _633
REMARK  260  A    between atoms: _633  and  _634
REMARK  261  A    between atoms: _634  and  _635
REMARK  262  A    between atoms: _635  and  _636
REMARK  263  A    between atoms: _640  and  _642
REMARK  264  A    between atoms: _642  and  _643
REMARK  265  A    between atoms: _645  and  _647
REMARK  266  A    between atoms: _647  and  _648
REMARK  267  A    between atoms: _647  and  _650
REMARK  268  A    between atoms: _650  and  _651
REMARK                            x       y       z     vdW  Elec       q    Type
REMARK                         _______ _______ _______ _____ _____    ______ ____
ROOT
ATOM      1  O   HOH     1      34.303 -40.924   7.870  0.00  0.00    +0.000 OA
ENDROOT
TORSDOF 0
REMARK  Name = ../refined-set-2016/1rp7/1rp7_pocket.pdb
REMARK  268 active torsions:
REMARK  status: ('A' for Active; 'I' for Inactive)
REMARK    1  A    between atoms: _1  and  _3
REMARK    2  A    between atoms: _3  and  _4
REMARK    3  A    between atoms: _7  and  _9
REMARK    4  A    between atoms: _9  and  _10
REMARK    5  A    between atoms: _9  and  _12
REMARK    6  A    between atoms: _12  and  _13
REMARK    7  A    between atoms: _16  and  _18
REMARK    8  A    between atoms: _18  and  _19
REMARK    9  A    between atoms: _18  and  _21
REMARK   10  A    between atoms: _21  and  _22
REMARK   11  A    between atoms: _22  and  _23
REMARK   12  A    between atoms: _26  and  _28
REMARK   13  A    between atoms: _28  and  _29
REMARK   14  A    between atoms: _28  and  _31
REMARK   15  A    between atoms: _31  and  _32
REMARK   16  A    between atoms: _35  and  _37
REMARK   17  A    between atoms: _37  and  _38
REMARK   18  A    between atoms: _40  and  _42
REMARK   19  A    between atoms: _42  and  _43
REMARK   20  A    between atoms: _42  and  _45
REMARK   21  A    between atoms: _45  and  _46
REMARK   22  A    between atoms: _49  and  _51
REMARK   23  A    between atoms: _51  and  _52
REMARK   24  A    between atoms: _51  and  _54
REMARK   25  A    between atoms: _54  and  _55
REMARK   26  A    between atoms: _60  and  _62
REMARK   27  A    between atoms: _62  and  _63
REMARK   28  A    between atoms: _62  and  _65
REMARK   29  A    between atoms: _65  and  _66
REMARK   30  A    between atoms: _66  and  _67
REMARK   31  A    between atoms: _70  and  _72
REMARK   32  A    between atoms: _72  and  _73
REMARK   33  A    between atoms: _72  and  _75
REMARK   34  A    between atoms: _75  and  _76
REMARK   35  A    between atoms: _79  and  _81
REMARK   36  A    between atoms: _81  and  _82
REMARK   37  A    between atoms: _81  and  _84
REMARK   38  A    between atoms: _84  and  _85
REMARK   39  A    between atoms: _90  and  _91
REMARK   40  A    between atoms: _93  and  _95
REMARK   41  A    between atoms: _95  and  _96
REMARK   42  A    between atoms: _95  and  _98
REMARK   43  A    between atoms: _98  and  _99
REMARK   44  A    between atoms: _104  and  _105
REMARK   45  A    between atoms: _107  and  _109
REMARK   46  A    between atoms: _109  and  _110
REMARK   47  A    between atoms: _109  and  _112
REMARK   48  A    between atoms: _112  and  _113
REMARK   49  A    between atoms: _118  and  _119
REMARK   50  A    between atoms: _121  and  _123
REMARK   51  A    between atoms: _123  and  _124
REMARK   52  A    between atoms: _123  and  _126
REMARK   53  A    between atoms: _126  and  _127
REMARK   54  A    between atoms: _127  and  _128
REMARK   55  A    between atoms: _130  and  _132
REMARK   56  A    between atoms: _132  and  _133
REMARK   57  A    between atoms: _132  and  _135
REMARK   58  A    between atoms: _135  and  _136
REMARK   59  A    between atoms: _142  and  _144
REMARK   60  A    between atoms: _144  and  _145
REMARK   61  A    between atoms: _144  and  _147
REMARK   62  A    between atoms: _147  and  _148
REMARK   63  A    between atoms: _148  and  _149
REMARK   64  A    between atoms: _149  and  _150
REMARK   65  A    between atoms: _159  and  _161
REMARK   66  A    between atoms: _161  and  _162
REMARK   67  A    between atoms: _161  and  _164
REMARK   68  A    between atoms: _164  and  _165
REMARK   69  A    between atoms: _165  and  _166
REMARK   70  A    between atoms: _169  and  _171
REMARK   71  A    between atoms: _171  and  _172
REMARK   72  A    between atoms: _171  and  _174
REMARK   73  A    between atoms: _174  and  _175
REMARK   74  A    between atoms: _175  and  _176
REMARK   75  A    between atoms: _181  and  _183
REMARK   76  A    between atoms: _183  and  _184
REMARK   77  A    between atoms: _183  and  _186
REMARK   78  A    between atoms: _186  and  _187
REMARK   79  A    between atoms: _192  and  _194
REMARK   80  A    between atoms: _194  and  _195
REMARK   81  A    between atoms: _194  and  _197
REMARK   82  A    between atoms: _197  and  _198
REMARK   83  A    between atoms: _203  and  _205
REMARK   84  A    between atoms: _205  and  _206
REMARK   85  A    between atoms: _205  and  _208
REMARK   86  A    between atoms: _208  and  _209
REMARK   87  A    between atoms: _209  and  _210
REMARK   88  A    between atoms: _212  and  _214
REMARK   89  A    between atoms: _214  and  _215
REMARK   90  A    between atoms: _218  and  _220
REMARK   91  A    between atoms: _220  and  _221
REMARK   92  A    between atoms: _220  and  _223
REMARK   93  A    between atoms: _223  and  _224
REMARK   94  A    between atoms: _226  and  _228
REMARK   95  A    between atoms: _228  and  _229
REMARK   96  A    between atoms: _228  and  _231
REMARK   97  A    between atoms: _231  and  _232
REMARK   98  A    between atoms: _238  and  _240
REMARK   99  A    between atoms: _240  and  _241
REMARK  100  A    between atoms: _240  and  _243
REMARK  101  A    between atoms: _243  and  _244
REMARK  102  A    between atoms: _244  and  _245
REMARK  103  A    between atoms: _250  and  _252
REMARK  104  A    between atoms: _252  and  _253
REMARK  105  A    between atoms: _252  and  _255
REMARK  106  A    between atoms: _255  and  _256
REMARK  107  A    between atoms: _258  and  _260
REMARK  108  A    between atoms: _260  and  _261
REMARK  109  A    between atoms: _260  and  _263
REMARK  110  A    between atoms: _263  and  _264
REMARK  111  A    between atoms: _266  and  _268
REMARK  112  A    between atoms: _268  and  _269
REMARK  113  A    between atoms: _268  and  _271
REMARK  114  A    between atoms: _271  and  _272
REMARK  115  A    between atoms: _277  and  _278
REMARK  116  A    between atoms: _280  and  _282
REMARK  117  A    between atoms: _282  and  _283
REMARK  118  A    between atoms: _282  and  _285
REMARK  119  A    between atoms: _285  and  _286
REMARK  120  A    between atoms: _286  and  _287
REMARK  121  A    between atoms: _292  and  _294
REMARK  122  A    between atoms: _294  and  _295
REMARK  123  A    between atoms: _297  and  _299
REMARK  124  A    between atoms: _299  and  _300
REMARK  125  A    between atoms: _299  and  _302
REMARK  126  A    between atoms: _302  and  _303
REMARK  127  A    between atoms: _308  and  _310
REMARK  128  A    between atoms: _310  and  _311
REMARK  129  A    between atoms: _310  and  _313
REMARK  130  A    between atoms: _313  and  _314
REMARK  131  A    between atoms: _317  and  _319
REMARK  132  A    between atoms: _319  and  _320
REMARK  133  A    between atoms: _319  and  _322
REMARK  134  A    between atoms: _322  and  _323
REMARK  135  A    between atoms: _323  and  _324
REMARK  136  A    between atoms: _324  and  _325
REMARK  137  A    between atoms: _334  and  _336
REMARK  138  A    between atoms: _336  and  _337
REMARK  139  A    between atoms: _336  and  _339
REMARK  140  A    between atoms: _339  and  _340
REMARK  141  A    between atoms: _345  and  _346
REMARK  142  A    between atoms: _348  and  _350
REMARK  143  A    between atoms: _350  and  _351
REMARK  144  A    between atoms: _350  and  _353
REMARK  145  A    between atoms: _353  and  _354
REMARK  146  A    between atoms: _357  and  _359
REMARK  147  A    between atoms: _359  and  _360
REMARK  148  A    between atoms: _359  and  _362
REMARK  149  A    between atoms: _365  and  _367
REMARK  150  A    between atoms: _367  and  _368
REMARK  151  A    between atoms: _367  and  _370
REMARK  152  A    between atoms: _370  and  _371
REMARK  153  A    between atoms: _373  and  _375
REMARK  154  A    between atoms: _375  and  _376
REMARK  155  A    between atoms: _375  and  _378
REMARK  156  A    between atoms: _378  and  _379
REMARK  157  A    between atoms: _379  and  _380
REMARK  158  A    between atoms: _382  and  _384
REMARK  159  A    between atoms: _384  and  _385
REMARK  160  A    between atoms: _387  and  _389
REMARK  161  A    between atoms: _389  and  _390
REMARK  162  A    between atoms: _389  and  _392
REMARK  163  A    between atoms: _392  and  _393
REMARK  164  A    between atoms: _396  and  _398
REMARK  165  A    between atoms: _398  and  _399
REMARK  166  A    between atoms: _398  and  _401
REMARK  167  A    between atoms: _401  and  _402
REMARK  168  A    between atoms: _408  and  _410
REMARK  169  A    between atoms: _410  and  _411
REMARK  170  A    between atoms: _410  and  _413
REMARK  171  A    between atoms: _413  and  _414
REMARK  172  A    between atoms: _417  and  _419
REMARK  173  A    between atoms: _419  and  _420
REMARK  174  A    between atoms: _422  and  _424
REMARK  175  A    between atoms: _424  and  _425
REMARK  176  A    between atoms: _424  and  _427
REMARK  177  A    between atoms: _427  and  _428
REMARK  178  A    between atoms: _431  and  _433
REMARK  179  A    between atoms: _433  and  _434
REMARK  180  A    between atoms: _436  and  _438
REMARK  181  A    between atoms: _438  and  _439
REMARK  182  A    between atoms: _438  and  _441
REMARK  183  A    between atoms: _441  and  _442
REMARK  184  A    between atoms: _442  and  _443
REMARK  185  A    between atoms: _446  and  _448
REMARK  186  A    between atoms: _448  and  _449
REMARK  187  A    between atoms: _448  and  _451
REMARK  188  A    between atoms: _451  and  _452
REMARK  189  A    between atoms: _452  and  _453
REMARK  190  A    between atoms: _455  and  _457
REMARK  191  A    between atoms: _457  and  _458
REMARK  192  A    between atoms: _457  and  _460
REMARK  193  A    between atoms: _460  and  _461
REMARK  194  A    between atoms: _464  and  _466
REMARK  195  A    between atoms: _466  and  _467
REMARK  196  A    between atoms: _466  and  _469
REMARK  197  A    between atoms: _469  and  _470
REMARK  198  A    between atoms: _470  and  _471
REMARK  199  A    between atoms: _474  and  _476
REMARK  200  A    between atoms: _476  and  _477
REMARK  201  A    between atoms: _476  and  _479
REMARK  202  A    between atoms: _479  and  _480
REMARK  203  A    between atoms: _480  and  _481
REMARK  204  A    between atoms: _484  and  _486
REMARK  205  A    between atoms: _486  and  _487
REMARK  206  A    between atoms: _486  and  _489
REMARK  207  A    between atoms: _489  and  _490
REMARK  208  A    between atoms: _492  and  _494
REMARK  209  A    between atoms: _494  and  _495
REMARK  210  A    between atoms: _494  and  _497
REMARK  211  A    between atoms: _497  and  _498
REMARK  212  A    between atoms: _501  and  _503
REMARK  213  A    between atoms: _503  and  _504
REMARK  214  A    between atoms: _503  and  _506
REMARK  215  A    between atoms: _506  and  _507
REMARK  216  A    between atoms: _512  and  _514
REMARK  217  A    between atoms: _514  and  _515
REMARK  218  A    between atoms: _514  and  _517
REMARK  219  A    between atoms: _519  and  _521
REMARK  220  A    between atoms: _525  and  _527
REMARK  221  A    between atoms: _532  and  _535
REMARK  222  A    between atoms: _535  and  _536
REMARK  223  A    between atoms: _541  and  _544
REMARK  224  A    between atoms: _542  and  _551
REMARK  225  A    between atoms: _544  and  _545
REMARK  226  A    between atoms: _545  and  _546
REMARK  227  A    between atoms: _551  and  _553
REMARK  228  A    between atoms: _553  and  _554
REMARK  229  A    between atoms: _553  and  _556
REMARK  230  A    between atoms: _556  and  _557
REMARK  231  A    between atoms: _557  and  _558
REMARK  232  A    between atoms: _558  and  _559
REMARK  233  A    between atoms: _568  and  _570
REMARK  234  A    between atoms: _570  and  _571
REMARK  235  A    between atoms: _570  and  _573
REMARK  236  A    between atoms: _573  and  _574
REMARK  237  A    between atoms: _577  and  _579
REMARK  238  A    between atoms: _579  and  _580
REMARK  239  A    between atoms: _579  and  _582
REMARK  240  A    between atoms: _582  and  _583
REMARK  241  A    between atoms: _586  and  _588
REMARK  242  A    between atoms: _588  and  _589
REMARK  243  A    between atoms: _592  and  _593
REMARK  244  A    between atoms: _598  and  _600
REMARK  245  A    between atoms: _600  and  _601
REMARK  246  A    between atoms: _600  and  _603
REMARK  247  A    between atoms: _606  and  _608
REMARK  248  A    between atoms: _608  and  _609
REMARK  249  A    between atoms: _608  and  _611
REMARK  250  A    between atoms: _611  and  _612
REMARK  251  A    between atoms: _612  and  _613
REMARK  252  A    between atoms: _618  and  _620
REMARK  253  A    between atoms: _620  and  _621
REMARK  254  A    between atoms: _620  and  _623
REMARK  255  A    between atoms: _623  and  _624
REMARK  256  A    between atoms: _627  and  _629
REMARK  257  A    between atoms: _629  and  _630
REMARK  258  A    between atoms: _629  and  _632
REMARK  259  A    between atoms: _632  and  _633
REMARK  260  A    between atoms: _633  and  _634
REMARK  261  A    between atoms: _634  and  _635
REMARK  262  A    between atoms: _635  and  _636
REMARK  263  A    between atoms: _640  and  _642
REMARK  264  A    between atoms: _642  and  _643
REMARK  265  A    between atoms: _645  and  _647
REMARK  266  A    between atoms: _647  and  _648
REMARK  267  A    between atoms: _647  and  _650
REMARK  268  A    between atoms: _650  and  _651
REMARK                            x       y       z     vdW  Elec       q    Type
REMARK                         _______ _______ _______ _____ _____    ______ ____
ROOT
ATOM      1  O   HOH     1      25.972 -39.700  18.354  0.00  0.00    +0.000 OA
ENDROOT
TORSDOF 0
REMARK  Name = ../refined-set-2016/1rp7/1rp7_pocket.pdb
REMARK  268 active torsions:
REMARK  status: ('A' for Active; 'I' for Inactive)
REMARK    1  A    between atoms: _1  and  _3
REMARK    2  A    between atoms: _3  and  _4
REMARK    3  A    between atoms: _7  and  _9
REMARK    4  A    between atoms: _9  and  _10
REMARK    5  A    between atoms: _9  and  _12
REMARK    6  A    between atoms: _12  and  _13
REMARK    7  A    between atoms: _16  and  _18
REMARK    8  A    between atoms: _18  and  _19
REMARK    9  A    between atoms: _18  and  _21
REMARK   10  A    between atoms: _21  and  _22
REMARK   11  A    between atoms: _22  and  _23
REMARK   12  A    between atoms: _26  and  _28
REMARK   13  A    between atoms: _28  and  _29
REMARK   14  A    between atoms: _28  and  _31
REMARK   15  A    between atoms: _31  and  _32
REMARK   16  A    between atoms: _35  and  _37
REMARK   17  A    between atoms: _37  and  _38
REMARK   18  A    between atoms: _40  and  _42
REMARK   19  A    between atoms: _42  and  _43
REMARK   20  A    between atoms: _42  and  _45
REMARK   21  A    between atoms: _45  and  _46
REMARK   22  A    between atoms: _49  and  _51
REMARK   23  A    between atoms: _51  and  _52
REMARK   24  A    between atoms: _51  and  _54
REMARK   25  A    between atoms: _54  and  _55
REMARK   26  A    between atoms: _60  and  _62
REMARK   27  A    between atoms: _62  and  _63
REMARK   28  A    between atoms: _62  and  _65
REMARK   29  A    between atoms: _65  and  _66
REMARK   30  A    between atoms: _66  and  _67
REMARK   31  A    between atoms: _70  and  _72
REMARK   32  A    between atoms: _72  and  _73
REMARK   33  A    between atoms: _72  and  _75
REMARK   34  A    between atoms: _75  and  _76
REMARK   35  A    between atoms: _79  and  _81
REMARK   36  A    between atoms: _81  and  _82
REMARK   37  A    between atoms: _81  and  _84
REMARK   38  A    between atoms: _84  and  _85
REMARK   39  A    between atoms: _90  and  _91
REMARK   40  A    between atoms: _93  and  _95
REMARK   41  A    between atoms: _95  and  _96
REMARK   42  A    between atoms: _95  and  _98
REMARK   43  A    between atoms: _98  and  _99
REMARK   44  A    between atoms: _104  and  _105
REMARK   45  A    between atoms: _107  and  _109
REMARK   46  A    between atoms: _109  and  _110
REMARK   47  A    between atoms: _109  and  _112
REMARK   48  A    between atoms: _112  and  _113
REMARK   49  A    between atoms: _118  and  _119
REMARK   50  A    between atoms: _121  and  _123
REMARK   51  A    between atoms: _123  and  _124
REMARK   52  A    between atoms: _123  and  _126
REMARK   53  A    between atoms: _126  and  _127
REMARK   54  A    between atoms: _127  and  _128
REMARK   55  A    between atoms: _130  and  _132
REMARK   56  A    between atoms: _132  and  _133
REMARK   57  A    between atoms: _132  and  _135
REMARK   58  A    between atoms: _135  and  _136
REMARK   59  A    between atoms: _142  and  _144
REMARK   60  A    between atoms: _144  and  _145
REMARK   61  A    between atoms: _144  and  _147
REMARK   62  A    between atoms: _147  and  _148
REMARK   63  A    between atoms: _148  and  _149
REMARK   64  A    between atoms: _149  and  _150
REMARK   65  A    between atoms: _159  and  _161
REMARK   66  A    between atoms: _161  and  _162
REMARK   67  A    between atoms: _161  and  _164
REMARK   68  A    between atoms: _164  and  _165
REMARK   69  A    between atoms: _165  and  _166
REMARK   70  A    between atoms: _169  and  _171
REMARK   71  A    between atoms: _171  and  _172
REMARK   72  A    between atoms: _171  and  _174
REMARK   73  A    between atoms: _174  and  _175
REMARK   74  A    between atoms: _175  and  _176
REMARK   75  A    between atoms: _181  and  _183
REMARK   76  A    between atoms: _183  and  _184
REMARK   77  A    between atoms: _183  and  _186
REMARK   78  A    between atoms: _186  and  _187
REMARK   79  A    between atoms: _192  and  _194
REMARK   80  A    between atoms: _194  and  _195
REMARK   81  A    between atoms: _194  and  _197
REMARK   82  A    between atoms: _197  and  _198
REMARK   83  A    between atoms: _203  and  _205
REMARK   84  A    between atoms: _205  and  _206
REMARK   85  A    between atoms: _205  and  _208
REMARK   86  A    between atoms: _208  and  _209
REMARK   87  A    between atoms: _209  and  _210
REMARK   88  A    between atoms: _212  and  _214
REMARK   89  A    between atoms: _214  and  _215
REMARK   90  A    between atoms: _218  and  _220
REMARK   91  A    between atoms: _220  and  _221
REMARK   92  A    between atoms: _220  and  _223
REMARK   93  A    between atoms: _223  and  _224
REMARK   94  A    between atoms: _226  and  _228
REMARK   95  A    between atoms: _228  and  _229
REMARK   96  A    between atoms: _228  and  _231
REMARK   97  A    between atoms: _231  and  _232
REMARK   98  A    between atoms: _238  and  _240
REMARK   99  A    between atoms: _240  and  _241
REMARK  100  A    between atoms: _240  and  _243
REMARK  101  A    between atoms: _243  and  _244
REMARK  102  A    between atoms: _244  and  _245
REMARK  103  A    between atoms: _250  and  _252
REMARK  104  A    between atoms: _252  and  _253
REMARK  105  A    between atoms: _252  and  _255
REMARK  106  A    between atoms: _255  and  _256
REMARK  107  A    between atoms: _258  and  _260
REMARK  108  A    between atoms: _260  and  _261
REMARK  109  A    between atoms: _260  and  _263
REMARK  110  A    between atoms: _263  and  _264
REMARK  111  A    between atoms: _266  and  _268
REMARK  112  A    between atoms: _268  and  _269
REMARK  113  A    between atoms: _268  and  _271
REMARK  114  A    between atoms: _271  and  _272
REMARK  115  A    between atoms: _277  and  _278
REMARK  116  A    between atoms: _280  and  _282
REMARK  117  A    between atoms: _282  and  _283
REMARK  118  A    between atoms: _282  and  _285
REMARK  119  A    between atoms: _285  and  _286
REMARK  120  A    between atoms: _286  and  _287
REMARK  121  A    between atoms: _292  and  _294
REMARK  122  A    between atoms: _294  and  _295
REMARK  123  A    between atoms: _297  and  _299
REMARK  124  A    between atoms: _299  and  _300
REMARK  125  A    between atoms: _299  and  _302
REMARK  126  A    between atoms: _302  and  _303
REMARK  127  A    between atoms: _308  and  _310
REMARK  128  A    between atoms: _310  and  _311
REMARK  129  A    between atoms: _310  and  _313
REMARK  130  A    between atoms: _313  and  _314
REMARK  131  A    between atoms: _317  and  _319
REMARK  132  A    between atoms: _319  and  _320
REMARK  133  A    between atoms: _319  and  _322
REMARK  134  A    between atoms: _322  and  _323
REMARK  135  A    between atoms: _323  and  _324
REMARK  136  A    between atoms: _324  and  _325
REMARK  137  A    between atoms: _334  and  _336
REMARK  138  A    between atoms: _336  and  _337
REMARK  139  A    between atoms: _336  and  _339
REMARK  140  A    between atoms: _339  and  _340
REMARK  141  A    between atoms: _345  and  _346
REMARK  142  A    between atoms: _348  and  _350
REMARK  143  A    between atoms: _350  and  _351
REMARK  144  A    between atoms: _350  and  _353
REMARK  145  A    between atoms: _353  and  _354
REMARK  146  A    between atoms: _357  and  _359
REMARK  147  A    between atoms: _359  and  _360
REMARK  148  A    between atoms: _359  and  _362
REMARK  149  A    between atoms: _365  and  _367
REMARK  150  A    between atoms: _367  and  _368
REMARK  151  A    between atoms: _367  and  _370
REMARK  152  A    between atoms: _370  and  _371
REMARK  153  A    between atoms: _373  and  _375
REMARK  154  A    between atoms: _375  and  _376
REMARK  155  A    between atoms: _375  and  _378
REMARK  156  A    between atoms: _378  and  _379
REMARK  157  A    between atoms: _379  and  _380
REMARK  158  A    between atoms: _382  and  _384
REMARK  159  A    between atoms: _384  and  _385
REMARK  160  A    between atoms: _387  and  _389
REMARK  161  A    between atoms: _389  and  _390
REMARK  162  A    between atoms: _389  and  _392
REMARK  163  A    between atoms: _392  and  _393
REMARK  164  A    between atoms: _396  and  _398
REMARK  165  A    between atoms: _398  and  _399
REMARK  166  A    between atoms: _398  and  _401
REMARK  167  A    between atoms: _401  and  _402
REMARK  168  A    between atoms: _408  and  _410
REMARK  169  A    between atoms: _410  and  _411
REMARK  170  A    between atoms: _410  and  _413
REMARK  171  A    between atoms: _413  and  _414
REMARK  172  A    between atoms: _417  and  _419
REMARK  173  A    between atoms: _419  and  _420
REMARK  174  A    between atoms: _422  and  _424
REMARK  175  A    between atoms: _424  and  _425
REMARK  176  A    between atoms: _424  and  _427
REMARK  177  A    between atoms: _427  and  _428
REMARK  178  A    between atoms: _431  and  _433
REMARK  179  A    between atoms: _433  and  _434
REMARK  180  A    between atoms: _436  and  _438
REMARK  181  A    between atoms: _438  and  _439
REMARK  182  A    between atoms: _438  and  _441
REMARK  183  A    between atoms: _441  and  _442
REMARK  184  A    between atoms: _442  and  _443
REMARK  185  A    between atoms: _446  and  _448
REMARK  186  A    between atoms: _448  and  _449
REMARK  187  A    between atoms: _448  and  _451
REMARK  188  A    between atoms: _451  and  _452
REMARK  189  A    between atoms: _452  and  _453
REMARK  190  A    between atoms: _455  and  _457
REMARK  191  A    between atoms: _457  and  _458
REMARK  192  A    between atoms: _457  and  _460
REMARK  193  A    between atoms: _460  and  _461
REMARK  194  A    between atoms: _464  and  _466
REMARK  195  A    between atoms: _466  and  _467
REMARK  196  A    between atoms: _466  and  _469
REMARK  197  A    between atoms: _469  and  _470
REMARK  198  A    between atoms: _470  and  _471
REMARK  199  A    between atoms: _474  and  _476
REMARK  200  A    between atoms: _476  and  _477
REMARK  201  A    between atoms: _476  and  _479
REMARK  202  A    between atoms: _479  and  _480
REMARK  203  A    between atoms: _480  and  _481
REMARK  204  A    between atoms: _484  and  _486
REMARK  205  A    between atoms: _486  and  _487
REMARK  206  A    between atoms: _486  and  _489
REMARK  207  A    between atoms: _489  and  _490
REMARK  208  A    between atoms: _492  and  _494
REMARK  209  A    between atoms: _494  and  _495
REMARK  210  A    between atoms: _494  and  _497
REMARK  211  A    between atoms: _497  and  _498
REMARK  212  A    between atoms: _501  and  _503
REMARK  213  A    between atoms: _503  and  _504
REMARK  214  A    between atoms: _503  and  _506
REMARK  215  A    between atoms: _506  and  _507
REMARK  216  A    between atoms: _512  and  _514
REMARK  217  A    between atoms: _514  and  _515
REMARK  218  A    between atoms: _514  and  _517
REMARK  219  A    between atoms: _519  and  _521
REMARK  220  A    between atoms: _525  and  _527
REMARK  221  A    between atoms: _532  and  _535
REMARK  222  A    between atoms: _535  and  _536
REMARK  223  A    between atoms: _541  and  _544
REMARK  224  A    between atoms: _542  and  _551
REMARK  225  A    between atoms: _544  and  _545
REMARK  226  A    between atoms: _545  and  _546
REMARK  227  A    between atoms: _551  and  _553
REMARK  228  A    between atoms: _553  and  _554
REMARK  229  A    between atoms: _553  and  _556
REMARK  230  A    between atoms: _556  and  _557
REMARK  231  A    between atoms: _557  and  _558
REMARK  232  A    between atoms: _558  and  _559
REMARK  233  A    between atoms: _568  and  _570
REMARK  234  A    between atoms: _570  and  _571
REMARK  235  A    between atoms: _570  and  _573
REMARK  236  A    between atoms: _573  and  _574
REMARK  237  A    between atoms: _577  and  _579
REMARK  238  A    between atoms: _579  and  _580
REMARK  239  A    between atoms: _579  and  _582
REMARK  240  A    between atoms: _582  and  _583
REMARK  241  A    between atoms: _586  and  _588
REMARK  242  A    between atoms: _588  and  _589
REMARK  243  A    between atoms: _592  and  _593
REMARK  244  A    between atoms: _598  and  _600
REMARK  245  A    between atoms: _600  and  _601
REMARK  246  A    between atoms: _600  and  _603
REMARK  247  A    between atoms: _606  and  _608
REMARK  248  A    between atoms: _608  and  _609
REMARK  249  A    between atoms: _608  and  _611
REMARK  250  A    between atoms: _611  and  _612
REMARK  251  A    between atoms: _612  and  _613
REMARK  252  A    between atoms: _618  and  _620
REMARK  253  A    between atoms: _620  and  _621
REMARK  254  A    between atoms: _620  and  _623
REMARK  255  A    between atoms: _623  and  _624
REMARK  256  A    between atoms: _627  and  _629
REMARK  257  A    between atoms: _629  and  _630
REMARK  258  A    between atoms: _629  and  _632
REMARK  259  A    between atoms: _632  and  _633
REMARK  260  A    between atoms: _633  and  _634
REMARK  261  A    between atoms: _634  and  _635
REMARK  262  A    between atoms: _635  and  _636
REMARK  263  A    between atoms: _640  and  _642
REMARK  264  A    between atoms: _642  and  _643
REMARK  265  A    between atoms: _645  and  _647
REMARK  266  A    between atoms: _647  and  _648
REMARK  267  A    between atoms: _647  and  _650
REMARK  268  A    between atoms: _650  and  _651
REMARK                            x       y       z     vdW  Elec       q    Type
REMARK                         _______ _______ _______ _____ _____    ______ ____
ROOT
ATOM      1  O   HOH     1      17.898 -35.537   9.674  0.00  0.00    +0.000 OA
ENDROOT
TORSDOF 0
REMARK  Name = ../refined-set-2016/1rp7/1rp7_pocket.pdb
REMARK  268 active torsions:
REMARK  status: ('A' for Active; 'I' for Inactive)
REMARK    1  A    between atoms: _1  and  _3
REMARK    2  A    between atoms: _3  and  _4
REMARK    3  A    between atoms: _7  and  _9
REMARK    4  A    between atoms: _9  and  _10
REMARK    5  A    between atoms: _9  and  _12
REMARK    6  A    between atoms: _12  and  _13
REMARK    7  A    between atoms: _16  and  _18
REMARK    8  A    between atoms: _18  and  _19
REMARK    9  A    between atoms: _18  and  _21
REMARK   10  A    between atoms: _21  and  _22
REMARK   11  A    between atoms: _22  and  _23
REMARK   12  A    between atoms: _26  and  _28
REMARK   13  A    between atoms: _28  and  _29
REMARK   14  A    between atoms: _28  and  _31
REMARK   15  A    between atoms: _31  and  _32
REMARK   16  A    between atoms: _35  and  _37
REMARK   17  A    between atoms: _37  and  _38
REMARK   18  A    between atoms: _40  and  _42
REMARK   19  A    between atoms: _42  and  _43
REMARK   20  A    between atoms: _42  and  _45
REMARK   21  A    between atoms: _45  and  _46
REMARK   22  A    between atoms: _49  and  _51
REMARK   23  A    between atoms: _51  and  _52
REMARK   24  A    between atoms: _51  and  _54
REMARK   25  A    between atoms: _54  and  _55
REMARK   26  A    between atoms: _60  and  _62
REMARK   27  A    between atoms: _62  and  _63
REMARK   28  A    between atoms: _62  and  _65
REMARK   29  A    between atoms: _65  and  _66
REMARK   30  A    between atoms: _66  and  _67
REMARK   31  A    between atoms: _70  and  _72
REMARK   32  A    between atoms: _72  and  _73
REMARK   33  A    between atoms: _72  and  _75
REMARK   34  A    between atoms: _75  and  _76
REMARK   35  A    between atoms: _79  and  _81
REMARK   36  A    between atoms: _81  and  _82
REMARK   37  A    between atoms: _81  and  _84
REMARK   38  A    between atoms: _84  and  _85
REMARK   39  A    between atoms: _90  and  _91
REMARK   40  A    between atoms: _93  and  _95
REMARK   41  A    between atoms: _95  and  _96
REMARK   42  A    between atoms: _95  and  _98
REMARK   43  A    between atoms: _98  and  _99
REMARK   44  A    between atoms: _104  and  _105
REMARK   45  A    between atoms: _107  and  _109
REMARK   46  A    between atoms: _109  and  _110
REMARK   47  A    between atoms: _109  and  _112
REMARK   48  A    between atoms: _112  and  _113
REMARK   49  A    between atoms: _118  and  _119
REMARK   50  A    between atoms: _121  and  _123
REMARK   51  A    between atoms: _123  and  _124
REMARK   52  A    between atoms: _123  and  _126
REMARK   53  A    between atoms: _126  and  _127
REMARK   54  A    between atoms: _127  and  _128
REMARK   55  A    between atoms: _130  and  _132
REMARK   56  A    between atoms: _132  and  _133
REMARK   57  A    between atoms: _132  and  _135
REMARK   58  A    between atoms: _135  and  _136
REMARK   59  A    between atoms: _142  and  _144
REMARK   60  A    between atoms: _144  and  _145
REMARK   61  A    between atoms: _144  and  _147
REMARK   62  A    between atoms: _147  and  _148
REMARK   63  A    between atoms: _148  and  _149
REMARK   64  A    between atoms: _149  and  _150
REMARK   65  A    between atoms: _159  and  _161
REMARK   66  A    between atoms: _161  and  _162
REMARK   67  A    between atoms: _161  and  _164
REMARK   68  A    between atoms: _164  and  _165
REMARK   69  A    between atoms: _165  and  _166
REMARK   70  A    between atoms: _169  and  _171
REMARK   71  A    between atoms: _171  and  _172
REMARK   72  A    between atoms: _171  and  _174
REMARK   73  A    between atoms: _174  and  _175
REMARK   74  A    between atoms: _175  and  _176
REMARK   75  A    between atoms: _181  and  _183
REMARK   76  A    between atoms: _183  and  _184
REMARK   77  A    between atoms: _183  and  _186
REMARK   78  A    between atoms: _186  and  _187
REMARK   79  A    between atoms: _192  and  _194
REMARK   80  A    between atoms: _194  and  _195
REMARK   81  A    between atoms: _194  and  _197
REMARK   82  A    between atoms: _197  and  _198
REMARK   83  A    between atoms: _203  and  _205
REMARK   84  A    between atoms: _205  and  _206
REMARK   85  A    between atoms: _205  and  _208
REMARK   86  A    between atoms: _208  and  _209
REMARK   87  A    between atoms: _209  and  _210
REMARK   88  A    between atoms: _212  and  _214
REMARK   89  A    between atoms: _214  and  _215
REMARK   90  A    between atoms: _218  and  _220
REMARK   91  A    between atoms: _220  and  _221
REMARK   92  A    between atoms: _220  and  _223
REMARK   93  A    between atoms: _223  and  _224
REMARK   94  A    between atoms: _226  and  _228
REMARK   95  A    between atoms: _228  and  _229
REMARK   96  A    between atoms: _228  and  _231
REMARK   97  A    between atoms: _231  and  _232
REMARK   98  A    between atoms: _238  and  _240
REMARK   99  A    between atoms: _240  and  _241
REMARK  100  A    between atoms: _240  and  _243
REMARK  101  A    between atoms: _243  and  _244
REMARK  102  A    between atoms: _244  and  _245
REMARK  103  A    between atoms: _250  and  _252
REMARK  104  A    between atoms: _252  and  _253
REMARK  105  A    between atoms: _252  and  _255
REMARK  106  A    between atoms: _255  and  _256
REMARK  107  A    between atoms: _258  and  _260
REMARK  108  A    between atoms: _260  and  _261
REMARK  109  A    between atoms: _260  and  _263
REMARK  110  A    between atoms: _263  and  _264
REMARK  111  A    between atoms: _266  and  _268
REMARK  112  A    between atoms: _268  and  _269
REMARK  113  A    between atoms: _268  and  _271
REMARK  114  A    between atoms: _271  and  _272
REMARK  115  A    between atoms: _277  and  _278
REMARK  116  A    between atoms: _280  and  _282
REMARK  117  A    between atoms: _282  and  _283
REMARK  118  A    between atoms: _282  and  _285
REMARK  119  A    between atoms: _285  and  _286
REMARK  120  A    between atoms: _286  and  _287
REMARK  121  A    between atoms: _292  and  _294
REMARK  122  A    between atoms: _294  and  _295
REMARK  123  A    between atoms: _297  and  _299
REMARK  124  A    between atoms: _299  and  _300
REMARK  125  A    between atoms: _299  and  _302
REMARK  126  A    between atoms: _302  and  _303
REMARK  127  A    between atoms: _308  and  _310
REMARK  128  A    between atoms: _310  and  _311
REMARK  129  A    between atoms: _310  and  _313
REMARK  130  A    between atoms: _313  and  _314
REMARK  131  A    between atoms: _317  and  _319
REMARK  132  A    between atoms: _319  and  _320
REMARK  133  A    between atoms: _319  and  _322
REMARK  134  A    between atoms: _322  and  _323
REMARK  135  A    between atoms: _323  and  _324
REMARK  136  A    between atoms: _324  and  _325
REMARK  137  A    between atoms: _334  and  _336
REMARK  138  A    between atoms: _336  and  _337
REMARK  139  A    between atoms: _336  and  _339
REMARK  140  A    between atoms: _339  and  _340
REMARK  141  A    between atoms: _345  and  _346
REMARK  142  A    between atoms: _348  and  _350
REMARK  143  A    between atoms: _350  and  _351
REMARK  144  A    between atoms: _350  and  _353
REMARK  145  A    between atoms: _353  and  _354
REMARK  146  A    between atoms: _357  and  _359
REMARK  147  A    between atoms: _359  and  _360
REMARK  148  A    between atoms: _359  and  _362
REMARK  149  A    between atoms: _365  and  _367
REMARK  150  A    between atoms: _367  and  _368
REMARK  151  A    between atoms: _367  and  _370
REMARK  152  A    between atoms: _370  and  _371
REMARK  153  A    between atoms: _373  and  _375
REMARK  154  A    between atoms: _375  and  _376
REMARK  155  A    between atoms: _375  and  _378
REMARK  156  A    between atoms: _378  and  _379
REMARK  157  A    between atoms: _379  and  _380
REMARK  158  A    between atoms: _382  and  _384
REMARK  159  A    between atoms: _384  and  _385
REMARK  160  A    between atoms: _387  and  _389
REMARK  161  A    between atoms: _389  and  _390
REMARK  162  A    between atoms: _389  and  _392
REMARK  163  A    between atoms: _392  and  _393
REMARK  164  A    between atoms: _396  and  _398
REMARK  165  A    between atoms: _398  and  _399
REMARK  166  A    between atoms: _398  and  _401
REMARK  167  A    between atoms: _401  and  _402
REMARK  168  A    between atoms: _408  and  _410
REMARK  169  A    between atoms: _410  and  _411
REMARK  170  A    between atoms: _410  and  _413
REMARK  171  A    between atoms: _413  and  _414
REMARK  172  A    between atoms: _417  and  _419
REMARK  173  A    between atoms: _419  and  _420
REMARK  174  A    between atoms: _422  and  _424
REMARK  175  A    between atoms: _424  and  _425
REMARK  176  A    between atoms: _424  and  _427
REMARK  177  A    between atoms: _427  and  _428
REMARK  178  A    between atoms: _431  and  _433
REMARK  179  A    between atoms: _433  and  _434
REMARK  180  A    between atoms: _436  and  _438
REMARK  181  A    between atoms: _438  and  _439
REMARK  182  A    between atoms: _438  and  _441
REMARK  183  A    between atoms: _441  and  _442
REMARK  184  A    between atoms: _442  and  _443
REMARK  185  A    between atoms: _446  and  _448
REMARK  186  A    between atoms: _448  and  _449
REMARK  187  A    between atoms: _448  and  _451
REMARK  188  A    between atoms: _451  and  _452
REMARK  189  A    between atoms: _452  and  _453
REMARK  190  A    between atoms: _455  and  _457
REMARK  191  A    between atoms: _457  and  _458
REMARK  192  A    between atoms: _457  and  _460
REMARK  193  A    between atoms: _460  and  _461
REMARK  194  A    between atoms: _464  and  _466
REMARK  195  A    between atoms: _466  and  _467
REMARK  196  A    between atoms: _466  and  _469
REMARK  197  A    between atoms: _469  and  _470
REMARK  198  A    between atoms: _470  and  _471
REMARK  199  A    between atoms: _474  and  _476
REMARK  200  A    between atoms: _476  and  _477
REMARK  201  A    between atoms: _476  and  _479
REMARK  202  A    between atoms: _479  and  _480
REMARK  203  A    between atoms: _480  and  _481
REMARK  204  A    between atoms: _484  and  _486
REMARK  205  A    between atoms: _486  and  _487
REMARK  206  A    between atoms: _486  and  _489
REMARK  207  A    between atoms: _489  and  _490
REMARK  208  A    between atoms: _492  and  _494
REMARK  209  A    between atoms: _494  and  _495
REMARK  210  A    between atoms: _494  and  _497
REMARK  211  A    between atoms: _497  and  _498
REMARK  212  A    between atoms: _501  and  _503
REMARK  213  A    between atoms: _503  and  _504
REMARK  214  A    between atoms: _503  and  _506
REMARK  215  A    between atoms: _506  and  _507
REMARK  216  A    between atoms: _512  and  _514
REMARK  217  A    between atoms: _514  and  _515
REMARK  218  A    between atoms: _514  and  _517
REMARK  219  A    between atoms: _519  and  _521
REMARK  220  A    between atoms: _525  and  _527
REMARK  221  A    between atoms: _532  and  _535
REMARK  222  A    between atoms: _535  and  _536
REMARK  223  A    between atoms: _541  and  _544
REMARK  224  A    between atoms: _542  and  _551
REMARK  225  A    between atoms: _544  and  _545
REMARK  226  A    between atoms: _545  and  _546
REMARK  227  A    between atoms: _551  and  _553
REMARK  228  A    between atoms: _553  and  _554
REMARK  229  A    between atoms: _553  and  _556
REMARK  230  A    between atoms: _556  and  _557
REMARK  231  A    between atoms: _557  and  _558
REMARK  232  A    between atoms: _558  and  _559
REMARK  233  A    between atoms: _568  and  _570
REMARK  234  A    between atoms: _570  and  _571
REMARK  235  A    between atoms: _570  and  _573
REMARK  236  A    between atoms: _573  and  _574
REMARK  237  A    between atoms: _577  and  _579
REMARK  238  A    between atoms: _579  and  _580
REMARK  239  A    between atoms: _579  and  _582
REMARK  240  A    between atoms: _582  and  _583
REMARK  241  A    between atoms: _586  and  _588
REMARK  242  A    between atoms: _588  and  _589
REMARK  243  A    between atoms: _592  and  _593
REMARK  244  A    between atoms: _598  and  _600
REMARK  245  A    between atoms: _600  and  _601
REMARK  246  A    between atoms: _600  and  _603
REMARK  247  A    between atoms: _606  and  _608
REMARK  248  A    between atoms: _608  and  _609
REMARK  249  A    between atoms: _608  and  _611
REMARK  250  A    between atoms: _611  and  _612
REMARK  251  A    between atoms: _612  and  _613
REMARK  252  A    between atoms: _618  and  _620
REMARK  253  A    between atoms: _620  and  _621
REMARK  254  A    between atoms: _620  and  _623
REMARK  255  A    between atoms: _623  and  _624
REMARK  256  A    between atoms: _627  and  _629
REMARK  257  A    between atoms: _629  and  _630
REMARK  258  A    between atoms: _629  and  _632
REMARK  259  A    between atoms: _632  and  _633
REMARK  260  A    between atoms: _633  and  _634
REMARK  261  A    between atoms: _634  and  _635
REMARK  262  A    between atoms: _635  and  _636
REMARK  263  A    between atoms: _640  and  _642
REMARK  264  A    between atoms: _642  and  _643
REMARK  265  A    between atoms: _645  and  _647
REMARK  266  A    between atoms: _647  and  _648
REMARK  267  A    between atoms: _647  and  _650
REMARK  268  A    between atoms: _650  and  _651
REMARK                            x       y       z     vdW  Elec       q    Type
REMARK                         _______ _______ _______ _____ _____    ______ ____
ROOT
ATOM      1  O   HOH     1      15.122 -38.524  12.946  0.00  0.00    +0.000 OA
ENDROOT
TORSDOF 0
REMARK  Name = ../refined-set-2016/1rp7/1rp7_pocket.pdb
REMARK  268 active torsions:
REMARK  status: ('A' for Active; 'I' for Inactive)
REMARK    1  A    between atoms: _1  and  _3
REMARK    2  A    between atoms: _3  and  _4
REMARK    3  A    between atoms: _7  and  _9
REMARK    4  A    between atoms: _9  and  _10
REMARK    5  A    between atoms: _9  and  _12
REMARK    6  A    between atoms: _12  and  _13
REMARK    7  A    between atoms: _16  and  _18
REMARK    8  A    between atoms: _18  and  _19
REMARK    9  A    between atoms: _18  and  _21
REMARK   10  A    between atoms: _21  and  _22
REMARK   11  A    between atoms: _22  and  _23
REMARK   12  A    between atoms: _26  and  _28
REMARK   13  A    between atoms: _28  and  _29
REMARK   14  A    between atoms: _28  and  _31
REMARK   15  A    between atoms: _31  and  _32
REMARK   16  A    between atoms: _35  and  _37
REMARK   17  A    between atoms: _37  and  _38
REMARK   18  A    between atoms: _40  and  _42
REMARK   19  A    between atoms: _42  and  _43
REMARK   20  A    between atoms: _42  and  _45
REMARK   21  A    between atoms: _45  and  _46
REMARK   22  A    between atoms: _49  and  _51
REMARK   23  A    between atoms: _51  and  _52
REMARK   24  A    between atoms: _51  and  _54
REMARK   25  A    between atoms: _54  and  _55
REMARK   26  A    between atoms: _60  and  _62
REMARK   27  A    between atoms: _62  and  _63
REMARK   28  A    between atoms: _62  and  _65
REMARK   29  A    between atoms: _65  and  _66
REMARK   30  A    between atoms: _66  and  _67
REMARK   31  A    between atoms: _70  and  _72
REMARK   32  A    between atoms: _72  and  _73
REMARK   33  A    between atoms: _72  and  _75
REMARK   34  A    between atoms: _75  and  _76
REMARK   35  A    between atoms: _79  and  _81
REMARK   36  A    between atoms: _81  and  _82
REMARK   37  A    between atoms: _81  and  _84
REMARK   38  A    between atoms: _84  and  _85
REMARK   39  A    between atoms: _90  and  _91
REMARK   40  A    between atoms: _93  and  _95
REMARK   41  A    between atoms: _95  and  _96
REMARK   42  A    between atoms: _95  and  _98
REMARK   43  A    between atoms: _98  and  _99
REMARK   44  A    between atoms: _104  and  _105
REMARK   45  A    between atoms: _107  and  _109
REMARK   46  A    between atoms: _109  and  _110
REMARK   47  A    between atoms: _109  and  _112
REMARK   48  A    between atoms: _112  and  _113
REMARK   49  A    between atoms: _118  and  _119
REMARK   50  A    between atoms: _121  and  _123
REMARK   51  A    between atoms: _123  and  _124
REMARK   52  A    between atoms: _123  and  _126
REMARK   53  A    between atoms: _126  and  _127
REMARK   54  A    between atoms: _127  and  _128
REMARK   55  A    between atoms: _130  and  _132
REMARK   56  A    between atoms: _132  and  _133
REMARK   57  A    between atoms: _132  and  _135
REMARK   58  A    between atoms: _135  and  _136
REMARK   59  A    between atoms: _142  and  _144
REMARK   60  A    between atoms: _144  and  _145
REMARK   61  A    between atoms: _144  and  _147
REMARK   62  A    between atoms: _147  and  _148
REMARK   63  A    between atoms: _148  and  _149
REMARK   64  A    between atoms: _149  and  _150
REMARK   65  A    between atoms: _159  and  _161
REMARK   66  A    between atoms: _161  and  _162
REMARK   67  A    between atoms: _161  and  _164
REMARK   68  A    between atoms: _164  and  _165
REMARK   69  A    between atoms: _165  and  _166
REMARK   70  A    between atoms: _169  and  _171
REMARK   71  A    between atoms: _171  and  _172
REMARK   72  A    between atoms: _171  and  _174
REMARK   73  A    between atoms: _174  and  _175
REMARK   74  A    between atoms: _175  and  _176
REMARK   75  A    between atoms: _181  and  _183
REMARK   76  A    between atoms: _183  and  _184
REMARK   77  A    between atoms: _183  and  _186
REMARK   78  A    between atoms: _186  and  _187
REMARK   79  A    between atoms: _192  and  _194
REMARK   80  A    between atoms: _194  and  _195
REMARK   81  A    between atoms: _194  and  _197
REMARK   82  A    between atoms: _197  and  _198
REMARK   83  A    between atoms: _203  and  _205
REMARK   84  A    between atoms: _205  and  _206
REMARK   85  A    between atoms: _205  and  _208
REMARK   86  A    between atoms: _208  and  _209
REMARK   87  A    between atoms: _209  and  _210
REMARK   88  A    between atoms: _212  and  _214
REMARK   89  A    between atoms: _214  and  _215
REMARK   90  A    between atoms: _218  and  _220
REMARK   91  A    between atoms: _220  and  _221
REMARK   92  A    between atoms: _220  and  _223
REMARK   93  A    between atoms: _223  and  _224
REMARK   94  A    between atoms: _226  and  _228
REMARK   95  A    between atoms: _228  and  _229
REMARK   96  A    between atoms: _228  and  _231
REMARK   97  A    between atoms: _231  and  _232
REMARK   98  A    between atoms: _238  and  _240
REMARK   99  A    between atoms: _240  and  _241
REMARK  100  A    between atoms: _240  and  _243
REMARK  101  A    between atoms: _243  and  _244
REMARK  102  A    between atoms: _244  and  _245
REMARK  103  A    between atoms: _250  and  _252
REMARK  104  A    between atoms: _252  and  _253
REMARK  105  A    between atoms: _252  and  _255
REMARK  106  A    between atoms: _255  and  _256
REMARK  107  A    between atoms: _258  and  _260
REMARK  108  A    between atoms: _260  and  _261
REMARK  109  A    between atoms: _260  and  _263
REMARK  110  A    between atoms: _263  and  _264
REMARK  111  A    between atoms: _266  and  _268
REMARK  112  A    between atoms: _268  and  _269
REMARK  113  A    between atoms: _268  and  _271
REMARK  114  A    between atoms: _271  and  _272
REMARK  115  A    between atoms: _277  and  _278
REMARK  116  A    between atoms: _280  and  _282
REMARK  117  A    between atoms: _282  and  _283
REMARK  118  A    between atoms: _282  and  _285
REMARK  119  A    between atoms: _285  and  _286
REMARK  120  A    between atoms: _286  and  _287
REMARK  121  A    between atoms: _292  and  _294
REMARK  122  A    between atoms: _294  and  _295
REMARK  123  A    between atoms: _297  and  _299
REMARK  124  A    between atoms: _299  and  _300
REMARK  125  A    between atoms: _299  and  _302
REMARK  126  A    between atoms: _302  and  _303
REMARK  127  A    between atoms: _308  and  _310
REMARK  128  A    between atoms: _310  and  _311
REMARK  129  A    between atoms: _310  and  _313
REMARK  130  A    between atoms: _313  and  _314
REMARK  131  A    between atoms: _317  and  _319
REMARK  132  A    between atoms: _319  and  _320
REMARK  133  A    between atoms: _319  and  _322
REMARK  134  A    between atoms: _322  and  _323
REMARK  135  A    between atoms: _323  and  _324
REMARK  136  A    between atoms: _324  and  _325
REMARK  137  A    between atoms: _334  and  _336
REMARK  138  A    between atoms: _336  and  _337
REMARK  139  A    between atoms: _336  and  _339
REMARK  140  A    between atoms: _339  and  _340
REMARK  141  A    between atoms: _345  and  _346
REMARK  142  A    between atoms: _348  and  _350
REMARK  143  A    between atoms: _350  and  _351
REMARK  144  A    between atoms: _350  and  _353
REMARK  145  A    between atoms: _353  and  _354
REMARK  146  A    between atoms: _357  and  _359
REMARK  147  A    between atoms: _359  and  _360
REMARK  148  A    between atoms: _359  and  _362
REMARK  149  A    between atoms: _365  and  _367
REMARK  150  A    between atoms: _367  and  _368
REMARK  151  A    between atoms: _367  and  _370
REMARK  152  A    between atoms: _370  and  _371
REMARK  153  A    between atoms: _373  and  _375
REMARK  154  A    between atoms: _375  and  _376
REMARK  155  A    between atoms: _375  and  _378
REMARK  156  A    between atoms: _378  and  _379
REMARK  157  A    between atoms: _379  and  _380
REMARK  158  A    between atoms: _382  and  _384
REMARK  159  A    between atoms: _384  and  _385
REMARK  160  A    between atoms: _387  and  _389
REMARK  161  A    between atoms: _389  and  _390
REMARK  162  A    between atoms: _389  and  _392
REMARK  163  A    between atoms: _392  and  _393
REMARK  164  A    between atoms: _396  and  _398
REMARK  165  A    between atoms: _398  and  _399
REMARK  166  A    between atoms: _398  and  _401
REMARK  167  A    between atoms: _401  and  _402
REMARK  168  A    between atoms: _408  and  _410
REMARK  169  A    between atoms: _410  and  _411
REMARK  170  A    between atoms: _410  and  _413
REMARK  171  A    between atoms: _413  and  _414
REMARK  172  A    between atoms: _417  and  _419
REMARK  173  A    between atoms: _419  and  _420
REMARK  174  A    between atoms: _422  and  _424
REMARK  175  A    between atoms: _424  and  _425
REMARK  176  A    between atoms: _424  and  _427
REMARK  177  A    between atoms: _427  and  _428
REMARK  178  A    between atoms: _431  and  _433
REMARK  179  A    between atoms: _433  and  _434
REMARK  180  A    between atoms: _436  and  _438
REMARK  181  A    between atoms: _438  and  _439
REMARK  182  A    between atoms: _438  and  _441
REMARK  183  A    between atoms: _441  and  _442
REMARK  184  A    between atoms: _442  and  _443
REMARK  185  A    between atoms: _446  and  _448
REMARK  186  A    between atoms: _448  and  _449
REMARK  187  A    between atoms: _448  and  _451
REMARK  188  A    between atoms: _451  and  _452
REMARK  189  A    between atoms: _452  and  _453
REMARK  190  A    between atoms: _455  and  _457
REMARK  191  A    between atoms: _457  and  _458
REMARK  192  A    between atoms: _457  and  _460
REMARK  193  A    between atoms: _460  and  _461
REMARK  194  A    between atoms: _464  and  _466
REMARK  195  A    between atoms: _466  and  _467
REMARK  196  A    between atoms: _466  and  _469
REMARK  197  A    between atoms: _469  and  _470
REMARK  198  A    between atoms: _470  and  _471
REMARK  199  A    between atoms: _474  and  _476
REMARK  200  A    between atoms: _476  and  _477
REMARK  201  A    between atoms: _476  and  _479
REMARK  202  A    between atoms: _479  and  _480
REMARK  203  A    between atoms: _480  and  _481
REMARK  204  A    between atoms: _484  and  _486
REMARK  205  A    between atoms: _486  and  _487
REMARK  206  A    between atoms: _486  and  _489
REMARK  207  A    between atoms: _489  and  _490
REMARK  208  A    between atoms: _492  and  _494
REMARK  209  A    between atoms: _494  and  _495
REMARK  210  A    between atoms: _494  and  _497
REMARK  211  A    between atoms: _497  and  _498
REMARK  212  A    between atoms: _501  and  _503
REMARK  213  A    between atoms: _503  and  _504
REMARK  214  A    between atoms: _503  and  _506
REMARK  215  A    between atoms: _506  and  _507
REMARK  216  A    between atoms: _512  and  _514
REMARK  217  A    between atoms: _514  and  _515
REMARK  218  A    between atoms: _514  and  _517
REMARK  219  A    between atoms: _519  and  _521
REMARK  220  A    between atoms: _525  and  _527
REMARK  221  A    between atoms: _532  and  _535
REMARK  222  A    between atoms: _535  and  _536
REMARK  223  A    between atoms: _541  and  _544
REMARK  224  A    between atoms: _542  and  _551
REMARK  225  A    between atoms: _544  and  _545
REMARK  226  A    between atoms: _545  and  _546
REMARK  227  A    between atoms: _551  and  _553
REMARK  228  A    between atoms: _553  and  _554
REMARK  229  A    between atoms: _553  and  _556
REMARK  230  A    between atoms: _556  and  _557
REMARK  231  A    between atoms: _557  and  _558
REMARK  232  A    between atoms: _558  and  _559
REMARK  233  A    between atoms: _568  and  _570
REMARK  234  A    between atoms: _570  and  _571
REMARK  235  A    between atoms: _570  and  _573
REMARK  236  A    between atoms: _573  and  _574
REMARK  237  A    between atoms: _577  and  _579
REMARK  238  A    between atoms: _579  and  _580
REMARK  239  A    between atoms: _579  and  _582
REMARK  240  A    between atoms: _582  and  _583
REMARK  241  A    between atoms: _586  and  _588
REMARK  242  A    between atoms: _588  and  _589
REMARK  243  A    between atoms: _592  and  _593
REMARK  244  A    between atoms: _598  and  _600
REMARK  245  A    between atoms: _600  and  _601
REMARK  246  A    between atoms: _600  and  _603
REMARK  247  A    between atoms: _606  and  _608
REMARK  248  A    between atoms: _608  and  _609
REMARK  249  A    between atoms: _608  and  _611
REMARK  250  A    between atoms: _611  and  _612
REMARK  251  A    between atoms: _612  and  _613
REMARK  252  A    between atoms: _618  and  _620
REMARK  253  A    between atoms: _620  and  _621
REMARK  254  A    between atoms: _620  and  _623
REMARK  255  A    between atoms: _623  and  _624
REMARK  256  A    between atoms: _627  and  _629
REMARK  257  A    between atoms: _629  and  _630
REMARK  258  A    between atoms: _629  and  _632
REMARK  259  A    between atoms: _632  and  _633
REMARK  260  A    between atoms: _633  and  _634
REMARK  261  A    between atoms: _634  and  _635
REMARK  262  A    between atoms: _635  and  _636
REMARK  263  A    between atoms: _640  and  _642
REMARK  264  A    between atoms: _642  and  _643
REMARK  265  A    between atoms: _645  and  _647
REMARK  266  A    between atoms: _647  and  _648
REMARK  267  A    between atoms: _647  and  _650
REMARK  268  A    between atoms: _650  and  _651
REMARK                            x       y       z     vdW  Elec       q    Type
REMARK                         _______ _______ _______ _____ _____    ______ ____
ROOT
ATOM      1  O   HOH     1      16.003 -26.459  19.914  0.00  0.00    +0.000 OA
ENDROOT
TORSDOF 0
REMARK  Name = ../refined-set-2016/1rp7/1rp7_pocket.pdb
REMARK  268 active torsions:
REMARK  status: ('A' for Active; 'I' for Inactive)
REMARK    1  A    between atoms: _1  and  _3
REMARK    2  A    between atoms: _3  and  _4
REMARK    3  A    between atoms: _7  and  _9
REMARK    4  A    between atoms: _9  and  _10
REMARK    5  A    between atoms: _9  and  _12
REMARK    6  A    between atoms: _12  and  _13
REMARK    7  A    between atoms: _16  and  _18
REMARK    8  A    between atoms: _18  and  _19
REMARK    9  A    between atoms: _18  and  _21
REMARK   10  A    between atoms: _21  and  _22
REMARK   11  A    between atoms: _22  and  _23
REMARK   12  A    between atoms: _26  and  _28
REMARK   13  A    between atoms: _28  and  _29
REMARK   14  A    between atoms: _28  and  _31
REMARK   15  A    between atoms: _31  and  _32
REMARK   16  A    between atoms: _35  and  _37
REMARK   17  A    between atoms: _37  and  _38
REMARK   18  A    between atoms: _40  and  _42
REMARK   19  A    between atoms: _42  and  _43
REMARK   20  A    between atoms: _42  and  _45
REMARK   21  A    between atoms: _45  and  _46
REMARK   22  A    between atoms: _49  and  _51
REMARK   23  A    between atoms: _51  and  _52
REMARK   24  A    between atoms: _51  and  _54
REMARK   25  A    between atoms: _54  and  _55
REMARK   26  A    between atoms: _60  and  _62
REMARK   27  A    between atoms: _62  and  _63
REMARK   28  A    between atoms: _62  and  _65
REMARK   29  A    between atoms: _65  and  _66
REMARK   30  A    between atoms: _66  and  _67
REMARK   31  A    between atoms: _70  and  _72
REMARK   32  A    between atoms: _72  and  _73
REMARK   33  A    between atoms: _72  and  _75
REMARK   34  A    between atoms: _75  and  _76
REMARK   35  A    between atoms: _79  and  _81
REMARK   36  A    between atoms: _81  and  _82
REMARK   37  A    between atoms: _81  and  _84
REMARK   38  A    between atoms: _84  and  _85
REMARK   39  A    between atoms: _90  and  _91
REMARK   40  A    between atoms: _93  and  _95
REMARK   41  A    between atoms: _95  and  _96
REMARK   42  A    between atoms: _95  and  _98
REMARK   43  A    between atoms: _98  and  _99
REMARK   44  A    between atoms: _104  and  _105
REMARK   45  A    between atoms: _107  and  _109
REMARK   46  A    between atoms: _109  and  _110
REMARK   47  A    between atoms: _109  and  _112
REMARK   48  A    between atoms: _112  and  _113
REMARK   49  A    between atoms: _118  and  _119
REMARK   50  A    between atoms: _121  and  _123
REMARK   51  A    between atoms: _123  and  _124
REMARK   52  A    between atoms: _123  and  _126
REMARK   53  A    between atoms: _126  and  _127
REMARK   54  A    between atoms: _127  and  _128
REMARK   55  A    between atoms: _130  and  _132
REMARK   56  A    between atoms: _132  and  _133
REMARK   57  A    between atoms: _132  and  _135
REMARK   58  A    between atoms: _135  and  _136
REMARK   59  A    between atoms: _142  and  _144
REMARK   60  A    between atoms: _144  and  _145
REMARK   61  A    between atoms: _144  and  _147
REMARK   62  A    between atoms: _147  and  _148
REMARK   63  A    between atoms: _148  and  _149
REMARK   64  A    between atoms: _149  and  _150
REMARK   65  A    between atoms: _159  and  _161
REMARK   66  A    between atoms: _161  and  _162
REMARK   67  A    between atoms: _161  and  _164
REMARK   68  A    between atoms: _164  and  _165
REMARK   69  A    between atoms: _165  and  _166
REMARK   70  A    between atoms: _169  and  _171
REMARK   71  A    between atoms: _171  and  _172
REMARK   72  A    between atoms: _171  and  _174
REMARK   73  A    between atoms: _174  and  _175
REMARK   74  A    between atoms: _175  and  _176
REMARK   75  A    between atoms: _181  and  _183
REMARK   76  A    between atoms: _183  and  _184
REMARK   77  A    between atoms: _183  and  _186
REMARK   78  A    between atoms: _186  and  _187
REMARK   79  A    between atoms: _192  and  _194
REMARK   80  A    between atoms: _194  and  _195
REMARK   81  A    between atoms: _194  and  _197
REMARK   82  A    between atoms: _197  and  _198
REMARK   83  A    between atoms: _203  and  _205
REMARK   84  A    between atoms: _205  and  _206
REMARK   85  A    between atoms: _205  and  _208
REMARK   86  A    between atoms: _208  and  _209
REMARK   87  A    between atoms: _209  and  _210
REMARK   88  A    between atoms: _212  and  _214
REMARK   89  A    between atoms: _214  and  _215
REMARK   90  A    between atoms: _218  and  _220
REMARK   91  A    between atoms: _220  and  _221
REMARK   92  A    between atoms: _220  and  _223
REMARK   93  A    between atoms: _223  and  _224
REMARK   94  A    between atoms: _226  and  _228
REMARK   95  A    between atoms: _228  and  _229
REMARK   96  A    between atoms: _228  and  _231
REMARK   97  A    between atoms: _231  and  _232
REMARK   98  A    between atoms: _238  and  _240
REMARK   99  A    between atoms: _240  and  _241
REMARK  100  A    between atoms: _240  and  _243
REMARK  101  A    between atoms: _243  and  _244
REMARK  102  A    between atoms: _244  and  _245
REMARK  103  A    between atoms: _250  and  _252
REMARK  104  A    between atoms: _252  and  _253
REMARK  105  A    between atoms: _252  and  _255
REMARK  106  A    between atoms: _255  and  _256
REMARK  107  A    between atoms: _258  and  _260
REMARK  108  A    between atoms: _260  and  _261
REMARK  109  A    between atoms: _260  and  _263
REMARK  110  A    between atoms: _263  and  _264
REMARK  111  A    between atoms: _266  and  _268
REMARK  112  A    between atoms: _268  and  _269
REMARK  113  A    between atoms: _268  and  _271
REMARK  114  A    between atoms: _271  and  _272
REMARK  115  A    between atoms: _277  and  _278
REMARK  116  A    between atoms: _280  and  _282
REMARK  117  A    between atoms: _282  and  _283
REMARK  118  A    between atoms: _282  and  _285
REMARK  119  A    between atoms: _285  and  _286
REMARK  120  A    between atoms: _286  and  _287
REMARK  121  A    between atoms: _292  and  _294
REMARK  122  A    between atoms: _294  and  _295
REMARK  123  A    between atoms: _297  and  _299
REMARK  124  A    between atoms: _299  and  _300
REMARK  125  A    between atoms: _299  and  _302
REMARK  126  A    between atoms: _302  and  _303
REMARK  127  A    between atoms: _308  and  _310
REMARK  128  A    between atoms: _310  and  _311
REMARK  129  A    between atoms: _310  and  _313
REMARK  130  A    between atoms: _313  and  _314
REMARK  131  A    between atoms: _317  and  _319
REMARK  132  A    between atoms: _319  and  _320
REMARK  133  A    between atoms: _319  and  _322
REMARK  134  A    between atoms: _322  and  _323
REMARK  135  A    between atoms: _323  and  _324
REMARK  136  A    between atoms: _324  and  _325
REMARK  137  A    between atoms: _334  and  _336
REMARK  138  A    between atoms: _336  and  _337
REMARK  139  A    between atoms: _336  and  _339
REMARK  140  A    between atoms: _339  and  _340
REMARK  141  A    between atoms: _345  and  _346
REMARK  142  A    between atoms: _348  and  _350
REMARK  143  A    between atoms: _350  and  _351
REMARK  144  A    between atoms: _350  and  _353
REMARK  145  A    between atoms: _353  and  _354
REMARK  146  A    between atoms: _357  and  _359
REMARK  147  A    between atoms: _359  and  _360
REMARK  148  A    between atoms: _359  and  _362
REMARK  149  A    between atoms: _365  and  _367
REMARK  150  A    between atoms: _367  and  _368
REMARK  151  A    between atoms: _367  and  _370
REMARK  152  A    between atoms: _370  and  _371
REMARK  153  A    between atoms: _373  and  _375
REMARK  154  A    between atoms: _375  and  _376
REMARK  155  A    between atoms: _375  and  _378
REMARK  156  A    between atoms: _378  and  _379
REMARK  157  A    between atoms: _379  and  _380
REMARK  158  A    between atoms: _382  and  _384
REMARK  159  A    between atoms: _384  and  _385
REMARK  160  A    between atoms: _387  and  _389
REMARK  161  A    between atoms: _389  and  _390
REMARK  162  A    between atoms: _389  and  _392
REMARK  163  A    between atoms: _392  and  _393
REMARK  164  A    between atoms: _396  and  _398
REMARK  165  A    between atoms: _398  and  _399
REMARK  166  A    between atoms: _398  and  _401
REMARK  167  A    between atoms: _401  and  _402
REMARK  168  A    between atoms: _408  and  _410
REMARK  169  A    between atoms: _410  and  _411
REMARK  170  A    between atoms: _410  and  _413
REMARK  171  A    between atoms: _413  and  _414
REMARK  172  A    between atoms: _417  and  _419
REMARK  173  A    between atoms: _419  and  _420
REMARK  174  A    between atoms: _422  and  _424
REMARK  175  A    between atoms: _424  and  _425
REMARK  176  A    between atoms: _424  and  _427
REMARK  177  A    between atoms: _427  and  _428
REMARK  178  A    between atoms: _431  and  _433
REMARK  179  A    between atoms: _433  and  _434
REMARK  180  A    between atoms: _436  and  _438
REMARK  181  A    between atoms: _438  and  _439
REMARK  182  A    between atoms: _438  and  _441
REMARK  183  A    between atoms: _441  and  _442
REMARK  184  A    between atoms: _442  and  _443
REMARK  185  A    between atoms: _446  and  _448
REMARK  186  A    between atoms: _448  and  _449
REMARK  187  A    between atoms: _448  and  _451
REMARK  188  A    between atoms: _451  and  _452
REMARK  189  A    between atoms: _452  and  _453
REMARK  190  A    between atoms: _455  and  _457
REMARK  191  A    between atoms: _457  and  _458
REMARK  192  A    between atoms: _457  and  _460
REMARK  193  A    between atoms: _460  and  _461
REMARK  194  A    between atoms: _464  and  _466
REMARK  195  A    between atoms: _466  and  _467
REMARK  196  A    between atoms: _466  and  _469
REMARK  197  A    between atoms: _469  and  _470
REMARK  198  A    between atoms: _470  and  _471
REMARK  199  A    between atoms: _474  and  _476
REMARK  200  A    between atoms: _476  and  _477
REMARK  201  A    between atoms: _476  and  _479
REMARK  202  A    between atoms: _479  and  _480
REMARK  203  A    between atoms: _480  and  _481
REMARK  204  A    between atoms: _484  and  _486
REMARK  205  A    between atoms: _486  and  _487
REMARK  206  A    between atoms: _486  and  _489
REMARK  207  A    between atoms: _489  and  _490
REMARK  208  A    between atoms: _492  and  _494
REMARK  209  A    between atoms: _494  and  _495
REMARK  210  A    between atoms: _494  and  _497
REMARK  211  A    between atoms: _497  and  _498
REMARK  212  A    between atoms: _501  and  _503
REMARK  213  A    between atoms: _503  and  _504
REMARK  214  A    between atoms: _503  and  _506
REMARK  215  A    between atoms: _506  and  _507
REMARK  216  A    between atoms: _512  and  _514
REMARK  217  A    between atoms: _514  and  _515
REMARK  218  A    between atoms: _514  and  _517
REMARK  219  A    between atoms: _519  and  _521
REMARK  220  A    between atoms: _525  and  _527
REMARK  221  A    between atoms: _532  and  _535
REMARK  222  A    between atoms: _535  and  _536
REMARK  223  A    between atoms: _541  and  _544
REMARK  224  A    between atoms: _542  and  _551
REMARK  225  A    between atoms: _544  and  _545
REMARK  226  A    between atoms: _545  and  _546
REMARK  227  A    between atoms: _551  and  _553
REMARK  228  A    between atoms: _553  and  _554
REMARK  229  A    between atoms: _553  and  _556
REMARK  230  A    between atoms: _556  and  _557
REMARK  231  A    between atoms: _557  and  _558
REMARK  232  A    between atoms: _558  and  _559
REMARK  233  A    between atoms: _568  and  _570
REMARK  234  A    between atoms: _570  and  _571
REMARK  235  A    between atoms: _570  and  _573
REMARK  236  A    between atoms: _573  and  _574
REMARK  237  A    between atoms: _577  and  _579
REMARK  238  A    between atoms: _579  and  _580
REMARK  239  A    between atoms: _579  and  _582
REMARK  240  A    between atoms: _582  and  _583
REMARK  241  A    between atoms: _586  and  _588
REMARK  242  A    between atoms: _588  and  _589
REMARK  243  A    between atoms: _592  and  _593
REMARK  244  A    between atoms: _598  and  _600
REMARK  245  A    between atoms: _600  and  _601
REMARK  246  A    between atoms: _600  and  _603
REMARK  247  A    between atoms: _606  and  _608
REMARK  248  A    between atoms: _608  and  _609
REMARK  249  A    between atoms: _608  and  _611
REMARK  250  A    between atoms: _611  and  _612
REMARK  251  A    between atoms: _612  and  _613
REMARK  252  A    between atoms: _618  and  _620
REMARK  253  A    between atoms: _620  and  _621
REMARK  254  A    between atoms: _620  and  _623
REMARK  255  A    between atoms: _623  and  _624
REMARK  256  A    between atoms: _627  and  _629
REMARK  257  A    between atoms: _629  and  _630
REMARK  258  A    between atoms: _629  and  _632
REMARK  259  A    between atoms: _632  and  _633
REMARK  260  A    between atoms: _633  and  _634
REMARK  261  A    between atoms: _634  and  _635
REMARK  262  A    between atoms: _635  and  _636
REMARK  263  A    between atoms: _640  and  _642
REMARK  264  A    between atoms: _642  and  _643
REMARK  265  A    between atoms: _645  and  _647
REMARK  266  A    between atoms: _647  and  _648
REMARK  267  A    between atoms: _647  and  _650
REMARK  268  A    between atoms: _650  and  _651
REMARK                            x       y       z     vdW  Elec       q    Type
REMARK                         _______ _______ _______ _____ _____    ______ ____
ROOT
ATOM      1  O   HOH     1      22.126 -37.261  22.906  0.00  0.00    +0.000 OA
ENDROOT
TORSDOF 0
REMARK  Name = ../refined-set-2016/1rp7/1rp7_pocket.pdb
REMARK  268 active torsions:
REMARK  status: ('A' for Active; 'I' for Inactive)
REMARK    1  A    between atoms: _1  and  _3
REMARK    2  A    between atoms: _3  and  _4
REMARK    3  A    between atoms: _7  and  _9
REMARK    4  A    between atoms: _9  and  _10
REMARK    5  A    between atoms: _9  and  _12
REMARK    6  A    between atoms: _12  and  _13
REMARK    7  A    between atoms: _16  and  _18
REMARK    8  A    between atoms: _18  and  _19
REMARK    9  A    between atoms: _18  and  _21
REMARK   10  A    between atoms: _21  and  _22
REMARK   11  A    between atoms: _22  and  _23
REMARK   12  A    between atoms: _26  and  _28
REMARK   13  A    between atoms: _28  and  _29
REMARK   14  A    between atoms: _28  and  _31
REMARK   15  A    between atoms: _31  and  _32
REMARK   16  A    between atoms: _35  and  _37
REMARK   17  A    between atoms: _37  and  _38
REMARK   18  A    between atoms: _40  and  _42
REMARK   19  A    between atoms: _42  and  _43
REMARK   20  A    between atoms: _42  and  _45
REMARK   21  A    between atoms: _45  and  _46
REMARK   22  A    between atoms: _49  and  _51
REMARK   23  A    between atoms: _51  and  _52
REMARK   24  A    between atoms: _51  and  _54
REMARK   25  A    between atoms: _54  and  _55
REMARK   26  A    between atoms: _60  and  _62
REMARK   27  A    between atoms: _62  and  _63
REMARK   28  A    between atoms: _62  and  _65
REMARK   29  A    between atoms: _65  and  _66
REMARK   30  A    between atoms: _66  and  _67
REMARK   31  A    between atoms: _70  and  _72
REMARK   32  A    between atoms: _72  and  _73
REMARK   33  A    between atoms: _72  and  _75
REMARK   34  A    between atoms: _75  and  _76
REMARK   35  A    between atoms: _79  and  _81
REMARK   36  A    between atoms: _81  and  _82
REMARK   37  A    between atoms: _81  and  _84
REMARK   38  A    between atoms: _84  and  _85
REMARK   39  A    between atoms: _90  and  _91
REMARK   40  A    between atoms: _93  and  _95
REMARK   41  A    between atoms: _95  and  _96
REMARK   42  A    between atoms: _95  and  _98
REMARK   43  A    between atoms: _98  and  _99
REMARK   44  A    between atoms: _104  and  _105
REMARK   45  A    between atoms: _107  and  _109
REMARK   46  A    between atoms: _109  and  _110
REMARK   47  A    between atoms: _109  and  _112
REMARK   48  A    between atoms: _112  and  _113
REMARK   49  A    between atoms: _118  and  _119
REMARK   50  A    between atoms: _121  and  _123
REMARK   51  A    between atoms: _123  and  _124
REMARK   52  A    between atoms: _123  and  _126
REMARK   53  A    between atoms: _126  and  _127
REMARK   54  A    between atoms: _127  and  _128
REMARK   55  A    between atoms: _130  and  _132
REMARK   56  A    between atoms: _132  and  _133
REMARK   57  A    between atoms: _132  and  _135
REMARK   58  A    between atoms: _135  and  _136
REMARK   59  A    between atoms: _142  and  _144
REMARK   60  A    between atoms: _144  and  _145
REMARK   61  A    between atoms: _144  and  _147
REMARK   62  A    between atoms: _147  and  _148
REMARK   63  A    between atoms: _148  and  _149
REMARK   64  A    between atoms: _149  and  _150
REMARK   65  A    between atoms: _159  and  _161
REMARK   66  A    between atoms: _161  and  _162
REMARK   67  A    between atoms: _161  and  _164
REMARK   68  A    between atoms: _164  and  _165
REMARK   69  A    between atoms: _165  and  _166
REMARK   70  A    between atoms: _169  and  _171
REMARK   71  A    between atoms: _171  and  _172
REMARK   72  A    between atoms: _171  and  _174
REMARK   73  A    between atoms: _174  and  _175
REMARK   74  A    between atoms: _175  and  _176
REMARK   75  A    between atoms: _181  and  _183
REMARK   76  A    between atoms: _183  and  _184
REMARK   77  A    between atoms: _183  and  _186
REMARK   78  A    between atoms: _186  and  _187
REMARK   79  A    between atoms: _192  and  _194
REMARK   80  A    between atoms: _194  and  _195
REMARK   81  A    between atoms: _194  and  _197
REMARK   82  A    between atoms: _197  and  _198
REMARK   83  A    between atoms: _203  and  _205
REMARK   84  A    between atoms: _205  and  _206
REMARK   85  A    between atoms: _205  and  _208
REMARK   86  A    between atoms: _208  and  _209
REMARK   87  A    between atoms: _209  and  _210
REMARK   88  A    between atoms: _212  and  _214
REMARK   89  A    between atoms: _214  and  _215
REMARK   90  A    between atoms: _218  and  _220
REMARK   91  A    between atoms: _220  and  _221
REMARK   92  A    between atoms: _220  and  _223
REMARK   93  A    between atoms: _223  and  _224
REMARK   94  A    between atoms: _226  and  _228
REMARK   95  A    between atoms: _228  and  _229
REMARK   96  A    between atoms: _228  and  _231
REMARK   97  A    between atoms: _231  and  _232
REMARK   98  A    between atoms: _238  and  _240
REMARK   99  A    between atoms: _240  and  _241
REMARK  100  A    between atoms: _240  and  _243
REMARK  101  A    between atoms: _243  and  _244
REMARK  102  A    between atoms: _244  and  _245
REMARK  103  A    between atoms: _250  and  _252
REMARK  104  A    between atoms: _252  and  _253
REMARK  105  A    between atoms: _252  and  _255
REMARK  106  A    between atoms: _255  and  _256
REMARK  107  A    between atoms: _258  and  _260
REMARK  108  A    between atoms: _260  and  _261
REMARK  109  A    between atoms: _260  and  _263
REMARK  110  A    between atoms: _263  and  _264
REMARK  111  A    between atoms: _266  and  _268
REMARK  112  A    between atoms: _268  and  _269
REMARK  113  A    between atoms: _268  and  _271
REMARK  114  A    between atoms: _271  and  _272
REMARK  115  A    between atoms: _277  and  _278
REMARK  116  A    between atoms: _280  and  _282
REMARK  117  A    between atoms: _282  and  _283
REMARK  118  A    between atoms: _282  and  _285
REMARK  119  A    between atoms: _285  and  _286
REMARK  120  A    between atoms: _286  and  _287
REMARK  121  A    between atoms: _292  and  _294
REMARK  122  A    between atoms: _294  and  _295
REMARK  123  A    between atoms: _297  and  _299
REMARK  124  A    between atoms: _299  and  _300
REMARK  125  A    between atoms: _299  and  _302
REMARK  126  A    between atoms: _302  and  _303
REMARK  127  A    between atoms: _308  and  _310
REMARK  128  A    between atoms: _310  and  _311
REMARK  129  A    between atoms: _310  and  _313
REMARK  130  A    between atoms: _313  and  _314
REMARK  131  A    between atoms: _317  and  _319
REMARK  132  A    between atoms: _319  and  _320
REMARK  133  A    between atoms: _319  and  _322
REMARK  134  A    between atoms: _322  and  _323
REMARK  135  A    between atoms: _323  and  _324
REMARK  136  A    between atoms: _324  and  _325
REMARK  137  A    between atoms: _334  and  _336
REMARK  138  A    between atoms: _336  and  _337
REMARK  139  A    between atoms: _336  and  _339
REMARK  140  A    between atoms: _339  and  _340
REMARK  141  A    between atoms: _345  and  _346
REMARK  142  A    between atoms: _348  and  _350
REMARK  143  A    between atoms: _350  and  _351
REMARK  144  A    between atoms: _350  and  _353
REMARK  145  A    between atoms: _353  and  _354
REMARK  146  A    between atoms: _357  and  _359
REMARK  147  A    between atoms: _359  and  _360
REMARK  148  A    between atoms: _359  and  _362
REMARK  149  A    between atoms: _365  and  _367
REMARK  150  A    between atoms: _367  and  _368
REMARK  151  A    between atoms: _367  and  _370
REMARK  152  A    between atoms: _370  and  _371
REMARK  153  A    between atoms: _373  and  _375
REMARK  154  A    between atoms: _375  and  _376
REMARK  155  A    between atoms: _375  and  _378
REMARK  156  A    between atoms: _378  and  _379
REMARK  157  A    between atoms: _379  and  _380
REMARK  158  A    between atoms: _382  and  _384
REMARK  159  A    between atoms: _384  and  _385
REMARK  160  A    between atoms: _387  and  _389
REMARK  161  A    between atoms: _389  and  _390
REMARK  162  A    between atoms: _389  and  _392
REMARK  163  A    between atoms: _392  and  _393
REMARK  164  A    between atoms: _396  and  _398
REMARK  165  A    between atoms: _398  and  _399
REMARK  166  A    between atoms: _398  and  _401
REMARK  167  A    between atoms: _401  and  _402
REMARK  168  A    between atoms: _408  and  _410
REMARK  169  A    between atoms: _410  and  _411
REMARK  170  A    between atoms: _410  and  _413
REMARK  171  A    between atoms: _413  and  _414
REMARK  172  A    between atoms: _417  and  _419
REMARK  173  A    between atoms: _419  and  _420
REMARK  174  A    between atoms: _422  and  _424
REMARK  175  A    between atoms: _424  and  _425
REMARK  176  A    between atoms: _424  and  _427
REMARK  177  A    between atoms: _427  and  _428
REMARK  178  A    between atoms: _431  and  _433
REMARK  179  A    between atoms: _433  and  _434
REMARK  180  A    between atoms: _436  and  _438
REMARK  181  A    between atoms: _438  and  _439
REMARK  182  A    between atoms: _438  and  _441
REMARK  183  A    between atoms: _441  and  _442
REMARK  184  A    between atoms: _442  and  _443
REMARK  185  A    between atoms: _446  and  _448
REMARK  186  A    between atoms: _448  and  _449
REMARK  187  A    between atoms: _448  and  _451
REMARK  188  A    between atoms: _451  and  _452
REMARK  189  A    between atoms: _452  and  _453
REMARK  190  A    between atoms: _455  and  _457
REMARK  191  A    between atoms: _457  and  _458
REMARK  192  A    between atoms: _457  and  _460
REMARK  193  A    between atoms: _460  and  _461
REMARK  194  A    between atoms: _464  and  _466
REMARK  195  A    between atoms: _466  and  _467
REMARK  196  A    between atoms: _466  and  _469
REMARK  197  A    between atoms: _469  and  _470
REMARK  198  A    between atoms: _470  and  _471
REMARK  199  A    between atoms: _474  and  _476
REMARK  200  A    between atoms: _476  and  _477
REMARK  201  A    between atoms: _476  and  _479
REMARK  202  A    between atoms: _479  and  _480
REMARK  203  A    between atoms: _480  and  _481
REMARK  204  A    between atoms: _484  and  _486
REMARK  205  A    between atoms: _486  and  _487
REMARK  206  A    between atoms: _486  and  _489
REMARK  207  A    between atoms: _489  and  _490
REMARK  208  A    between atoms: _492  and  _494
REMARK  209  A    between atoms: _494  and  _495
REMARK  210  A    between atoms: _494  and  _497
REMARK  211  A    between atoms: _497  and  _498
REMARK  212  A    between atoms: _501  and  _503
REMARK  213  A    between atoms: _503  and  _504
REMARK  214  A    between atoms: _503  and  _506
REMARK  215  A    between atoms: _506  and  _507
REMARK  216  A    between atoms: _512  and  _514
REMARK  217  A    between atoms: _514  and  _515
REMARK  218  A    between atoms: _514  and  _517
REMARK  219  A    between atoms: _519  and  _521
REMARK  220  A    between atoms: _525  and  _527
REMARK  221  A    between atoms: _532  and  _535
REMARK  222  A    between atoms: _535  and  _536
REMARK  223  A    between atoms: _541  and  _544
REMARK  224  A    between atoms: _542  and  _551
REMARK  225  A    between atoms: _544  and  _545
REMARK  226  A    between atoms: _545  and  _546
REMARK  227  A    between atoms: _551  and  _553
REMARK  228  A    between atoms: _553  and  _554
REMARK  229  A    between atoms: _553  and  _556
REMARK  230  A    between atoms: _556  and  _557
REMARK  231  A    between atoms: _557  and  _558
REMARK  232  A    between atoms: _558  and  _559
REMARK  233  A    between atoms: _568  and  _570
REMARK  234  A    between atoms: _570  and  _571
REMARK  235  A    between atoms: _570  and  _573
REMARK  236  A    between atoms: _573  and  _574
REMARK  237  A    between atoms: _577  and  _579
REMARK  238  A    between atoms: _579  and  _580
REMARK  239  A    between atoms: _579  and  _582
REMARK  240  A    between atoms: _582  and  _583
REMARK  241  A    between atoms: _586  and  _588
REMARK  242  A    between atoms: _588  and  _589
REMARK  243  A    between atoms: _592  and  _593
REMARK  244  A    between atoms: _598  and  _600
REMARK  245  A    between atoms: _600  and  _601
REMARK  246  A    between atoms: _600  and  _603
REMARK  247  A    between atoms: _606  and  _608
REMARK  248  A    between atoms: _608  and  _609
REMARK  249  A    between atoms: _608  and  _611
REMARK  250  A    between atoms: _611  and  _612
REMARK  251  A    between atoms: _612  and  _613
REMARK  252  A    between atoms: _618  and  _620
REMARK  253  A    between atoms: _620  and  _621
REMARK  254  A    between atoms: _620  and  _623
REMARK  255  A    between atoms: _623  and  _624
REMARK  256  A    between atoms: _627  and  _629
REMARK  257  A    between atoms: _629  and  _630
REMARK  258  A    between atoms: _629  and  _632
REMARK  259  A    between atoms: _632  and  _633
REMARK  260  A    between atoms: _633  and  _634
REMARK  261  A    between atoms: _634  and  _635
REMARK  262  A    between atoms: _635  and  _636
REMARK  263  A    between atoms: _640  and  _642
REMARK  264  A    between atoms: _642  and  _643
REMARK  265  A    between atoms: _645  and  _647
REMARK  266  A    between atoms: _647  and  _648
REMARK  267  A    between atoms: _647  and  _650
REMARK  268  A    between atoms: _650  and  _651
REMARK                            x       y       z     vdW  Elec       q    Type
REMARK                         _______ _______ _______ _____ _____    ______ ____
ROOT
ATOM      1  O   HOH     1      32.071 -29.314  18.326  0.00  0.00    +0.000 OA
ENDROOT
TORSDOF 0
