REMARK  Name = ../refined-set-2016/4elg/4elg_pocket.pdb
REMARK  247 active torsions:
REMARK  status: ('A' for Active; 'I' for Inactive)
REMARK    1  A    between atoms: _1  and  _3
REMARK    2  A    between atoms: _3  and  _4
REMARK    3  A    between atoms: _3  and  _6
REMARK    4  A    between atoms: _6  and  _7
REMARK    5  A    between atoms: _13  and  _15
REMARK    6  A    between atoms: _15  and  _16
REMARK    7  A    between atoms: _15  and  _18
REMARK    8  A    between atoms: _18  and  _19
REMARK    9  A    between atoms: _19  and  _20
REMARK   10  A    between atoms: _22  and  _24
REMARK   11  A    between atoms: _24  and  _25
REMARK   12  A    between atoms: _24  and  _27
REMARK   13  A    between atoms: _30  and  _32
REMARK   14  A    between atoms: _32  and  _33
REMARK   15  A    between atoms: _36  and  _38
REMARK   16  A    between atoms: _38  and  _39
REMARK   17  A    between atoms: _38  and  _41
REMARK   18  A    between atoms: _41  and  _42
REMARK   19  A    between atoms: _42  and  _43
REMARK   20  A    between atoms: _45  and  _47
REMARK   21  A    between atoms: _47  and  _48
REMARK   22  A    between atoms: _47  and  _50
REMARK   23  A    between atoms: _50  and  _51
REMARK   24  A    between atoms: _54  and  _56
REMARK   25  A    between atoms: _56  and  _57
REMARK   26  A    between atoms: _59  and  _61
REMARK   27  A    between atoms: _61  and  _62
REMARK   28  A    between atoms: _61  and  _64
REMARK   29  A    between atoms: _64  and  _65
REMARK   30  A    between atoms: _65  and  _66
REMARK   31  A    between atoms: _66  and  _67
REMARK   32  A    between atoms: _67  and  _68
REMARK   33  A    between atoms: _72  and  _74
REMARK   34  A    between atoms: _74  and  _75
REMARK   35  A    between atoms: _74  and  _77
REMARK   36  A    between atoms: _77  and  _78
REMARK   37  A    between atoms: _81  and  _83
REMARK   38  A    between atoms: _83  and  _84
REMARK   39  A    between atoms: _83  and  _86
REMARK   40  A    between atoms: _86  and  _87
REMARK   41  A    between atoms: _92  and  _94
REMARK   42  A    between atoms: _94  and  _95
REMARK   43  A    between atoms: _94  and  _97
REMARK   44  A    between atoms: _97  and  _98
REMARK   45  A    between atoms: _103  and  _105
REMARK   46  A    between atoms: _105  and  _106
REMARK   47  A    between atoms: _105  and  _108
REMARK   48  A    between atoms: _108  and  _109
REMARK   49  A    between atoms: _113  and  _114
REMARK   50  A    between atoms: _119  and  _121
REMARK   51  A    between atoms: _121  and  _122
REMARK   52  A    between atoms: _121  and  _124
REMARK   53  A    between atoms: _124  and  _125
REMARK   54  A    between atoms: _135  and  _137
REMARK   55  A    between atoms: _137  and  _138
REMARK   56  A    between atoms: _137  and  _140
REMARK   57  A    between atoms: _140  and  _141
REMARK   58  A    between atoms: _141  and  _142
REMARK   59  A    between atoms: _142  and  _143
REMARK   60  A    between atoms: _152  and  _154
REMARK   61  A    between atoms: _154  and  _155
REMARK   62  A    between atoms: _154  and  _157
REMARK   63  A    between atoms: _157  and  _158
REMARK   64  A    between atoms: _162  and  _163
REMARK   65  A    between atoms: _168  and  _170
REMARK   66  A    between atoms: _170  and  _171
REMARK   67  A    between atoms: _170  and  _173
REMARK   68  A    between atoms: _173  and  _174
REMARK   69  A    between atoms: _176  and  _178
REMARK   70  A    between atoms: _178  and  _179
REMARK   71  A    between atoms: _178  and  _181
REMARK   72  A    between atoms: _181  and  _182
REMARK   73  A    between atoms: _182  and  _183
REMARK   74  A    between atoms: _186  and  _188
REMARK   75  A    between atoms: _188  and  _189
REMARK   76  A    between atoms: _188  and  _191
REMARK   77  A    between atoms: _191  and  _192
REMARK   78  A    between atoms: _195  and  _197
REMARK   79  A    between atoms: _197  and  _198
REMARK   80  A    between atoms: _197  and  _200
REMARK   81  A    between atoms: _200  and  _201
REMARK   82  A    between atoms: _201  and  _202
REMARK   83  A    between atoms: _207  and  _209
REMARK   84  A    between atoms: _209  and  _210
REMARK   85  A    between atoms: _209  and  _212
REMARK   86  A    between atoms: _212  and  _213
REMARK   87  A    between atoms: _218  and  _219
REMARK   88  A    between atoms: _221  and  _223
REMARK   89  A    between atoms: _223  and  _224
REMARK   90  A    between atoms: _223  and  _226
REMARK   91  A    between atoms: _229  and  _231
REMARK   92  A    between atoms: _231  and  _232
REMARK   93  A    between atoms: _231  and  _234
REMARK   94  A    between atoms: _234  and  _235
REMARK   95  A    between atoms: _235  and  _236
REMARK   96  A    between atoms: _236  and  _237
REMARK   97  A    between atoms: _237  and  _238
REMARK   98  A    between atoms: _242  and  _244
REMARK   99  A    between atoms: _244  and  _245
REMARK  100  A    between atoms: _244  and  _247
REMARK  101  A    between atoms: _247  and  _248
REMARK  102  A    between atoms: _248  and  _249
REMARK  103  A    between atoms: _249  and  _250
REMARK  104  A    between atoms: _250  and  _251
REMARK  105  A    between atoms: _255  and  _257
REMARK  106  A    between atoms: _257  and  _258
REMARK  107  A    between atoms: _257  and  _260
REMARK  108  A    between atoms: _260  and  _261
REMARK  109  A    between atoms: _264  and  _266
REMARK  110  A    between atoms: _266  and  _267
REMARK  111  A    between atoms: _266  and  _269
REMARK  112  A    between atoms: _269  and  _270
REMARK  113  A    between atoms: _273  and  _275
REMARK  114  A    between atoms: _275  and  _276
REMARK  115  A    between atoms: _275  and  _278
REMARK  116  A    between atoms: _278  and  _279
REMARK  117  A    between atoms: _279  and  _280
REMARK  118  A    between atoms: _282  and  _284
REMARK  119  A    between atoms: _284  and  _285
REMARK  120  A    between atoms: _287  and  _289
REMARK  121  A    between atoms: _289  and  _290
REMARK  122  A    between atoms: _289  and  _292
REMARK  123  A    between atoms: _292  and  _293
REMARK  124  A    between atoms: _298  and  _300
REMARK  125  A    between atoms: _300  and  _301
REMARK  126  A    between atoms: _300  and  _303
REMARK  127  A    between atoms: _303  and  _304
REMARK  128  A    between atoms: _307  and  _309
REMARK  129  A    between atoms: _309  and  _310
REMARK  130  A    between atoms: _309  and  _312
REMARK  131  A    between atoms: _312  and  _313
REMARK  132  A    between atoms: _316  and  _318
REMARK  133  A    between atoms: _318  and  _319
REMARK  134  A    between atoms: _318  and  _321
REMARK  135  A    between atoms: _321  and  _322
REMARK  136  A    between atoms: _322  and  _323
REMARK  137  A    between atoms: _325  and  _327
REMARK  138  A    between atoms: _327  and  _328
REMARK  139  A    between atoms: _327  and  _330
REMARK  140  A    between atoms: _330  and  _331
REMARK  141  A    between atoms: _331  and  _332
REMARK  142  A    between atoms: _332  and  _333
REMARK  143  A    between atoms: _333  and  _334
REMARK  144  A    between atoms: _338  and  _340
REMARK  145  A    between atoms: _340  and  _341
REMARK  146  A    between atoms: _340  and  _343
REMARK  147  A    between atoms: _343  and  _344
REMARK  148  A    between atoms: _349  and  _351
REMARK  149  A    between atoms: _351  and  _352
REMARK  150  A    between atoms: _351  and  _354
REMARK  151  A    between atoms: _354  and  _355
REMARK  152  A    between atoms: _360  and  _361
REMARK  153  A    between atoms: _363  and  _365
REMARK  154  A    between atoms: _365  and  _366
REMARK  155  A    between atoms: _365  and  _368
REMARK  156  A    between atoms: _368  and  _369
REMARK  157  A    between atoms: _369  and  _370
REMARK  158  A    between atoms: _373  and  _375
REMARK  159  A    between atoms: _375  and  _376
REMARK  160  A    between atoms: _379  and  _381
REMARK  161  A    between atoms: _381  and  _382
REMARK  162  A    between atoms: _381  and  _384
REMARK  163  A    between atoms: _384  and  _385
REMARK  164  A    between atoms: _388  and  _390
REMARK  165  A    between atoms: _390  and  _391
REMARK  166  A    between atoms: _393  and  _395
REMARK  167  A    between atoms: _395  and  _396
REMARK  168  A    between atoms: _395  and  _398
REMARK  169  A    between atoms: _398  and  _399
REMARK  170  A    between atoms: _399  and  _400
REMARK  171  A    between atoms: _400  and  _401
REMARK  172  A    between atoms: _411  and  _412
REMARK  173  A    between atoms: _417  and  _419
REMARK  174  A    between atoms: _419  and  _420
REMARK  175  A    between atoms: _419  and  _422
REMARK  176  A    between atoms: _422  and  _423
REMARK  177  A    between atoms: _427  and  _428
REMARK  178  A    between atoms: _433  and  _435
REMARK  179  A    between atoms: _435  and  _436
REMARK  180  A    between atoms: _438  and  _440
REMARK  181  A    between atoms: _440  and  _441
REMARK  182  A    between atoms: _440  and  _443
REMARK  183  A    between atoms: _443  and  _444
REMARK  184  A    between atoms: _444  and  _445
REMARK  185  A    between atoms: _445  and  _446
REMARK  186  A    between atoms: _455  and  _457
REMARK  187  A    between atoms: _457  and  _458
REMARK  188  A    between atoms: _457  and  _460
REMARK  189  A    between atoms: _460  and  _461
REMARK  190  A    between atoms: _466  and  _468
REMARK  191  A    between atoms: _468  and  _469
REMARK  192  A    between atoms: _468  and  _471
REMARK  193  A    between atoms: _471  and  _472
REMARK  194  A    between atoms: _478  and  _480
REMARK  195  A    between atoms: _480  and  _481
REMARK  196  A    between atoms: _480  and  _483
REMARK  197  A    between atoms: _483  and  _484
REMARK  198  A    between atoms: _487  and  _489
REMARK  199  A    between atoms: _489  and  _490
REMARK  200  A    between atoms: _489  and  _492
REMARK  201  A    between atoms: _492  and  _493
REMARK  202  A    between atoms: _499  and  _501
REMARK  203  A    between atoms: _501  and  _502
REMARK  204  A    between atoms: _504  and  _506
REMARK  205  A    between atoms: _506  and  _507
REMARK  206  A    between atoms: _509  and  _511
REMARK  207  A    between atoms: _511  and  _512
REMARK  208  A    between atoms: _511  and  _514
REMARK  209  A    between atoms: _514  and  _515
REMARK  210  A    between atoms: _520  and  _521
REMARK  211  A    between atoms: _523  and  _525
REMARK  212  A    between atoms: _525  and  _526
REMARK  213  A    between atoms: _525  and  _528
REMARK  214  A    between atoms: _528  and  _529
REMARK  215  A    between atoms: _534  and  _535
REMARK  216  A    between atoms: _537  and  _539
REMARK  217  A    between atoms: _539  and  _540
REMARK  218  A    between atoms: _539  and  _542
REMARK  219  A    between atoms: _542  and  _543
REMARK  220  A    between atoms: _546  and  _548
REMARK  221  A    between atoms: _548  and  _549
REMARK  222  A    between atoms: _548  and  _551
REMARK  223  A    between atoms: _551  and  _552
REMARK  224  A    between atoms: _555  and  _557
REMARK  225  A    between atoms: _557  and  _558
REMARK  226  A    between atoms: _557  and  _560
REMARK  227  A    between atoms: _560  and  _561
REMARK  228  A    between atoms: _561  and  _562
REMARK  229  A    between atoms: _562  and  _563
REMARK  230  A    between atoms: _563  and  _564
REMARK  231  A    between atoms: _568  and  _570
REMARK  232  A    between atoms: _570  and  _571
REMARK  233  A    between atoms: _570  and  _573
REMARK  234  A    between atoms: _573  and  _574
REMARK  235  A    between atoms: _577  and  _579
REMARK  236  A    between atoms: _579  and  _580
REMARK  237  A    between atoms: _579  and  _582
REMARK  238  A    between atoms: _582  and  _583
REMARK  239  A    between atoms: _586  and  _588
REMARK  240  A    between atoms: _588  and  _589
REMARK  241  A    between atoms: _588  and  _591
REMARK  242  A    between atoms: _591  and  _592
REMARK  243  A    between atoms: _597  and  _598
REMARK  244  A    between atoms: _600  and  _602
REMARK  245  A    between atoms: _602  and  _603
REMARK  246  A    between atoms: _602  and  _605
REMARK  247  A    between atoms: _605  and  _606
REMARK                            x       y       z     vdW  Elec       q    Type
REMARK                         _______ _______ _______ _____ _____    ______ ____
ROOT
ATOM      1  C   MET A   2      14.559 -34.661  -7.968  0.00  0.00    +0.241 C 
ATOM      2  N   VAL A   3      13.940 -35.401  -7.052  0.00  0.00    -0.297 N 
ATOM      3  H   VAL A   3      14.173 -36.409  -6.949  0.00  0.00    +0.150 HD
ATOM      4  O   MET A   2      14.385 -33.435  -8.071  0.00  0.00    -0.273 OA
ENDROOT
BRANCH   2   5
ATOM      5  CA  VAL A   3      12.929 -34.787  -6.190  0.00  0.00    +0.149 C 
BRANCH   5   6
ATOM      6  C   VAL A   3      12.908 -35.364  -4.766  0.00  0.00    +0.241 C 
ATOM      7  N   ALA A   4      12.686 -34.481  -3.800  0.00  0.00    -0.297 N 
ATOM      8  H   ALA A   4      12.703 -33.466  -4.026  0.00  0.00    +0.150 HD
ATOM      9  O   VAL A   3      13.110 -36.571  -4.546  0.00  0.00    -0.273 OA
BRANCH   7  10
ATOM     10  CA  ALA A   4      12.418 -34.902  -2.426  0.00  0.00    +0.149 C 
ATOM     11  CB  ALA A   4      13.511 -34.401  -1.492  0.00  0.00    +0.031 C 
BRANCH  10  12
ATOM     12  C   ALA A   4      11.063 -34.339  -2.018  0.00  0.00    +0.241 C 
ATOM     13  N   MET A   5      10.148 -35.209  -1.617  0.00  0.00    -0.298 N 
ATOM     14  H   MET A   5      10.382 -36.218  -1.526  0.00  0.00    +0.150 HD
ATOM     15  O   ALA A   4      10.835 -33.118  -2.073  0.00  0.00    -0.273 OA
BRANCH  13  16
ATOM     16  CA  MET A   5       8.812 -34.729  -1.307  0.00  0.00    +0.138 C 
BRANCH  16  17
ATOM     17  C   MET A   5       8.202 -35.480  -0.142  0.00  0.00    +0.227 C 
ATOM     18  O   MET A   5       8.610 -36.603   0.168  0.00  0.00    -0.286 OA
ENDBRANCH  16  17
BRANCH  16  19
ATOM     19  CB  MET A   5       7.902 -34.860  -2.529  0.00  0.00    +0.039 C 
BRANCH  19  20
ATOM     20  CG  MET A   5       7.649 -36.290  -2.956  0.00  0.00    +0.060 C 
BRANCH  20  21
ATOM     21  SD  MET A   5       6.621 -36.406  -4.463  0.00  0.00    -0.139 S 
ATOM     22  CE  MET A   5       6.174 -38.161  -4.424  0.00  0.00    +0.069 C 
ENDBRANCH  20  21
ENDBRANCH  19  20
ENDBRANCH  16  19
ENDBRANCH  13  16
ENDBRANCH  10  12
ENDBRANCH   7  10
ENDBRANCH   5   6
BRANCH   5  23
ATOM     23  CB  VAL A   3      11.513 -34.829  -6.858  0.00  0.00    +0.027 C 
ATOM     24  CG2 VAL A   3      10.483 -34.035  -6.065  0.00  0.00    +0.002 C 
ATOM     25  CG1 VAL A   3      11.057 -36.241  -7.054  0.00  0.00    +0.002 C 
ENDBRANCH   5  23
ENDBRANCH   2   5
BRANCH   1  26
ATOM     26  CA  MET A   2      15.493 -35.390  -8.917  0.00  0.00    +0.149 C 
BRANCH  26  28
ATOM     27  C   PHE A   1      14.468 -36.167 -10.966  0.00  0.00    +0.239 C 
ATOM     28  N   MET A   2      14.974 -35.168 -10.254  0.00  0.00    -0.297 N 
ATOM     29  H   MET A   2      14.999 -34.211 -10.660  0.00  0.00    +0.150 HD
ATOM     30  O   PHE A   1      14.516 -37.350 -10.603  0.00  0.00    -0.274 OA
BRANCH  27  31
ATOM     31  CA  PHE A   1      13.806 -35.783 -12.278  0.00  0.00    +0.149 C 
BRANCH  31  32
ATOM     32  N   PHE A   1      14.316 -36.652 -13.346  0.00  0.00    -0.238 NA
ATOM     33  H   PHE A   1      13.839 -37.553 -13.550  0.00  0.00    +0.142 HD
ENDBRANCH  31  32
BRANCH  31  34
ATOM     34  CB  PHE A   1      12.297 -35.912 -12.099  0.00  0.00    +0.053 C 
BRANCH  34  35
ATOM     35  CG  PHE A   1      11.479 -35.239 -13.171  0.00  0.00    -0.020 A 
ATOM     36  CD2 PHE A   1      10.089 -35.226 -13.076  0.00  0.00    -0.004 A 
ATOM     37  CE2 PHE A   1       9.312 -34.608 -14.059  0.00  0.00    -0.000 A 
ATOM     38  CZ  PHE A   1       9.935 -34.002 -15.160  0.00  0.00    -0.000 A 
ATOM     39  CE1 PHE A   1      11.318 -34.012 -15.261  0.00  0.00    -0.000 A 
ATOM     40  CD1 PHE A   1      12.084 -34.627 -14.269  0.00  0.00    -0.004 A 
ENDBRANCH  34  35
ENDBRANCH  31  34
ENDBRANCH  27  31
ENDBRANCH  26  28
BRANCH  26  41
ATOM     41  CB  MET A   2      16.916 -34.855  -8.790  0.00  0.00    +0.041 C 
BRANCH  41  42
ATOM     42  CG  MET A   2      17.420 -34.725  -7.360  0.00  0.00    +0.060 C 
BRANCH  42  43
ATOM     43  SD  MET A   2      17.565 -36.336  -6.560  0.00  0.00    -0.139 S 
ATOM     44  CE  MET A   2      18.930 -37.080  -7.470  0.00  0.00    +0.069 C 
ENDBRANCH  42  43
ENDBRANCH  41  42
ENDBRANCH  26  41
ENDBRANCH   1  26
TORSDOF 19
REMARK  Name = ../refined-set-2016/4elg/4elg_pocket.pdb
REMARK  247 active torsions:
REMARK  status: ('A' for Active; 'I' for Inactive)
REMARK    1  A    between atoms: _1  and  _3
REMARK    2  A    between atoms: _3  and  _4
REMARK    3  A    between atoms: _3  and  _6
REMARK    4  A    between atoms: _6  and  _7
REMARK    5  A    between atoms: _13  and  _15
REMARK    6  A    between atoms: _15  and  _16
REMARK    7  A    between atoms: _15  and  _18
REMARK    8  A    between atoms: _18  and  _19
REMARK    9  A    between atoms: _19  and  _20
REMARK   10  A    between atoms: _22  and  _24
REMARK   11  A    between atoms: _24  and  _25
REMARK   12  A    between atoms: _24  and  _27
REMARK   13  A    between atoms: _30  and  _32
REMARK   14  A    between atoms: _32  and  _33
REMARK   15  A    between atoms: _36  and  _38
REMARK   16  A    between atoms: _38  and  _39
REMARK   17  A    between atoms: _38  and  _41
REMARK   18  A    between atoms: _41  and  _42
REMARK   19  A    between atoms: _42  and  _43
REMARK   20  A    between atoms: _45  and  _47
REMARK   21  A    between atoms: _47  and  _48
REMARK   22  A    between atoms: _47  and  _50
REMARK   23  A    between atoms: _50  and  _51
REMARK   24  A    between atoms: _54  and  _56
REMARK   25  A    between atoms: _56  and  _57
REMARK   26  A    between atoms: _59  and  _61
REMARK   27  A    between atoms: _61  and  _62
REMARK   28  A    between atoms: _61  and  _64
REMARK   29  A    between atoms: _64  and  _65
REMARK   30  A    between atoms: _65  and  _66
REMARK   31  A    between atoms: _66  and  _67
REMARK   32  A    between atoms: _67  and  _68
REMARK   33  A    between atoms: _72  and  _74
REMARK   34  A    between atoms: _74  and  _75
REMARK   35  A    between atoms: _74  and  _77
REMARK   36  A    between atoms: _77  and  _78
REMARK   37  A    between atoms: _81  and  _83
REMARK   38  A    between atoms: _83  and  _84
REMARK   39  A    between atoms: _83  and  _86
REMARK   40  A    between atoms: _86  and  _87
REMARK   41  A    between atoms: _92  and  _94
REMARK   42  A    between atoms: _94  and  _95
REMARK   43  A    between atoms: _94  and  _97
REMARK   44  A    between atoms: _97  and  _98
REMARK   45  A    between atoms: _103  and  _105
REMARK   46  A    between atoms: _105  and  _106
REMARK   47  A    between atoms: _105  and  _108
REMARK   48  A    between atoms: _108  and  _109
REMARK   49  A    between atoms: _113  and  _114
REMARK   50  A    between atoms: _119  and  _121
REMARK   51  A    between atoms: _121  and  _122
REMARK   52  A    between atoms: _121  and  _124
REMARK   53  A    between atoms: _124  and  _125
REMARK   54  A    between atoms: _135  and  _137
REMARK   55  A    between atoms: _137  and  _138
REMARK   56  A    between atoms: _137  and  _140
REMARK   57  A    between atoms: _140  and  _141
REMARK   58  A    between atoms: _141  and  _142
REMARK   59  A    between atoms: _142  and  _143
REMARK   60  A    between atoms: _152  and  _154
REMARK   61  A    between atoms: _154  and  _155
REMARK   62  A    between atoms: _154  and  _157
REMARK   63  A    between atoms: _157  and  _158
REMARK   64  A    between atoms: _162  and  _163
REMARK   65  A    between atoms: _168  and  _170
REMARK   66  A    between atoms: _170  and  _171
REMARK   67  A    between atoms: _170  and  _173
REMARK   68  A    between atoms: _173  and  _174
REMARK   69  A    between atoms: _176  and  _178
REMARK   70  A    between atoms: _178  and  _179
REMARK   71  A    between atoms: _178  and  _181
REMARK   72  A    between atoms: _181  and  _182
REMARK   73  A    between atoms: _182  and  _183
REMARK   74  A    between atoms: _186  and  _188
REMARK   75  A    between atoms: _188  and  _189
REMARK   76  A    between atoms: _188  and  _191
REMARK   77  A    between atoms: _191  and  _192
REMARK   78  A    between atoms: _195  and  _197
REMARK   79  A    between atoms: _197  and  _198
REMARK   80  A    between atoms: _197  and  _200
REMARK   81  A    between atoms: _200  and  _201
REMARK   82  A    between atoms: _201  and  _202
REMARK   83  A    between atoms: _207  and  _209
REMARK   84  A    between atoms: _209  and  _210
REMARK   85  A    between atoms: _209  and  _212
REMARK   86  A    between atoms: _212  and  _213
REMARK   87  A    between atoms: _218  and  _219
REMARK   88  A    between atoms: _221  and  _223
REMARK   89  A    between atoms: _223  and  _224
REMARK   90  A    between atoms: _223  and  _226
REMARK   91  A    between atoms: _229  and  _231
REMARK   92  A    between atoms: _231  and  _232
REMARK   93  A    between atoms: _231  and  _234
REMARK   94  A    between atoms: _234  and  _235
REMARK   95  A    between atoms: _235  and  _236
REMARK   96  A    between atoms: _236  and  _237
REMARK   97  A    between atoms: _237  and  _238
REMARK   98  A    between atoms: _242  and  _244
REMARK   99  A    between atoms: _244  and  _245
REMARK  100  A    between atoms: _244  and  _247
REMARK  101  A    between atoms: _247  and  _248
REMARK  102  A    between atoms: _248  and  _249
REMARK  103  A    between atoms: _249  and  _250
REMARK  104  A    between atoms: _250  and  _251
REMARK  105  A    between atoms: _255  and  _257
REMARK  106  A    between atoms: _257  and  _258
REMARK  107  A    between atoms: _257  and  _260
REMARK  108  A    between atoms: _260  and  _261
REMARK  109  A    between atoms: _264  and  _266
REMARK  110  A    between atoms: _266  and  _267
REMARK  111  A    between atoms: _266  and  _269
REMARK  112  A    between atoms: _269  and  _270
REMARK  113  A    between atoms: _273  and  _275
REMARK  114  A    between atoms: _275  and  _276
REMARK  115  A    between atoms: _275  and  _278
REMARK  116  A    between atoms: _278  and  _279
REMARK  117  A    between atoms: _279  and  _280
REMARK  118  A    between atoms: _282  and  _284
REMARK  119  A    between atoms: _284  and  _285
REMARK  120  A    between atoms: _287  and  _289
REMARK  121  A    between atoms: _289  and  _290
REMARK  122  A    between atoms: _289  and  _292
REMARK  123  A    between atoms: _292  and  _293
REMARK  124  A    between atoms: _298  and  _300
REMARK  125  A    between atoms: _300  and  _301
REMARK  126  A    between atoms: _300  and  _303
REMARK  127  A    between atoms: _303  and  _304
REMARK  128  A    between atoms: _307  and  _309
REMARK  129  A    between atoms: _309  and  _310
REMARK  130  A    between atoms: _309  and  _312
REMARK  131  A    between atoms: _312  and  _313
REMARK  132  A    between atoms: _316  and  _318
REMARK  133  A    between atoms: _318  and  _319
REMARK  134  A    between atoms: _318  and  _321
REMARK  135  A    between atoms: _321  and  _322
REMARK  136  A    between atoms: _322  and  _323
REMARK  137  A    between atoms: _325  and  _327
REMARK  138  A    between atoms: _327  and  _328
REMARK  139  A    between atoms: _327  and  _330
REMARK  140  A    between atoms: _330  and  _331
REMARK  141  A    between atoms: _331  and  _332
REMARK  142  A    between atoms: _332  and  _333
REMARK  143  A    between atoms: _333  and  _334
REMARK  144  A    between atoms: _338  and  _340
REMARK  145  A    between atoms: _340  and  _341
REMARK  146  A    between atoms: _340  and  _343
REMARK  147  A    between atoms: _343  and  _344
REMARK  148  A    between atoms: _349  and  _351
REMARK  149  A    between atoms: _351  and  _352
REMARK  150  A    between atoms: _351  and  _354
REMARK  151  A    between atoms: _354  and  _355
REMARK  152  A    between atoms: _360  and  _361
REMARK  153  A    between atoms: _363  and  _365
REMARK  154  A    between atoms: _365  and  _366
REMARK  155  A    between atoms: _365  and  _368
REMARK  156  A    between atoms: _368  and  _369
REMARK  157  A    between atoms: _369  and  _370
REMARK  158  A    between atoms: _373  and  _375
REMARK  159  A    between atoms: _375  and  _376
REMARK  160  A    between atoms: _379  and  _381
REMARK  161  A    between atoms: _381  and  _382
REMARK  162  A    between atoms: _381  and  _384
REMARK  163  A    between atoms: _384  and  _385
REMARK  164  A    between atoms: _388  and  _390
REMARK  165  A    between atoms: _390  and  _391
REMARK  166  A    between atoms: _393  and  _395
REMARK  167  A    between atoms: _395  and  _396
REMARK  168  A    between atoms: _395  and  _398
REMARK  169  A    between atoms: _398  and  _399
REMARK  170  A    between atoms: _399  and  _400
REMARK  171  A    between atoms: _400  and  _401
REMARK  172  A    between atoms: _411  and  _412
REMARK  173  A    between atoms: _417  and  _419
REMARK  174  A    between atoms: _419  and  _420
REMARK  175  A    between atoms: _419  and  _422
REMARK  176  A    between atoms: _422  and  _423
REMARK  177  A    between atoms: _427  and  _428
REMARK  178  A    between atoms: _433  and  _435
REMARK  179  A    between atoms: _435  and  _436
REMARK  180  A    between atoms: _438  and  _440
REMARK  181  A    between atoms: _440  and  _441
REMARK  182  A    between atoms: _440  and  _443
REMARK  183  A    between atoms: _443  and  _444
REMARK  184  A    between atoms: _444  and  _445
REMARK  185  A    between atoms: _445  and  _446
REMARK  186  A    between atoms: _455  and  _457
REMARK  187  A    between atoms: _457  and  _458
REMARK  188  A    between atoms: _457  and  _460
REMARK  189  A    between atoms: _460  and  _461
REMARK  190  A    between atoms: _466  and  _468
REMARK  191  A    between atoms: _468  and  _469
REMARK  192  A    between atoms: _468  and  _471
REMARK  193  A    between atoms: _471  and  _472
REMARK  194  A    between atoms: _478  and  _480
REMARK  195  A    between atoms: _480  and  _481
REMARK  196  A    between atoms: _480  and  _483
REMARK  197  A    between atoms: _483  and  _484
REMARK  198  A    between atoms: _487  and  _489
REMARK  199  A    between atoms: _489  and  _490
REMARK  200  A    between atoms: _489  and  _492
REMARK  201  A    between atoms: _492  and  _493
REMARK  202  A    between atoms: _499  and  _501
REMARK  203  A    between atoms: _501  and  _502
REMARK  204  A    between atoms: _504  and  _506
REMARK  205  A    between atoms: _506  and  _507
REMARK  206  A    between atoms: _509  and  _511
REMARK  207  A    between atoms: _511  and  _512
REMARK  208  A    between atoms: _511  and  _514
REMARK  209  A    between atoms: _514  and  _515
REMARK  210  A    between atoms: _520  and  _521
REMARK  211  A    between atoms: _523  and  _525
REMARK  212  A    between atoms: _525  and  _526
REMARK  213  A    between atoms: _525  and  _528
REMARK  214  A    between atoms: _528  and  _529
REMARK  215  A    between atoms: _534  and  _535
REMARK  216  A    between atoms: _537  and  _539
REMARK  217  A    between atoms: _539  and  _540
REMARK  218  A    between atoms: _539  and  _542
REMARK  219  A    between atoms: _542  and  _543
REMARK  220  A    between atoms: _546  and  _548
REMARK  221  A    between atoms: _548  and  _549
REMARK  222  A    between atoms: _548  and  _551
REMARK  223  A    between atoms: _551  and  _552
REMARK  224  A    between atoms: _555  and  _557
REMARK  225  A    between atoms: _557  and  _558
REMARK  226  A    between atoms: _557  and  _560
REMARK  227  A    between atoms: _560  and  _561
REMARK  228  A    between atoms: _561  and  _562
REMARK  229  A    between atoms: _562  and  _563
REMARK  230  A    between atoms: _563  and  _564
REMARK  231  A    between atoms: _568  and  _570
REMARK  232  A    between atoms: _570  and  _571
REMARK  233  A    between atoms: _570  and  _573
REMARK  234  A    between atoms: _573  and  _574
REMARK  235  A    between atoms: _577  and  _579
REMARK  236  A    between atoms: _579  and  _580
REMARK  237  A    between atoms: _579  and  _582
REMARK  238  A    between atoms: _582  and  _583
REMARK  239  A    between atoms: _586  and  _588
REMARK  240  A    between atoms: _588  and  _589
REMARK  241  A    between atoms: _588  and  _591
REMARK  242  A    between atoms: _591  and  _592
REMARK  243  A    between atoms: _597  and  _598
REMARK  244  A    between atoms: _600  and  _602
REMARK  245  A    between atoms: _602  and  _603
REMARK  246  A    between atoms: _602  and  _605
REMARK  247  A    between atoms: _605  and  _606
REMARK                            x       y       z     vdW  Elec       q    Type
REMARK                         _______ _______ _______ _____ _____    ______ ____
ROOT
ATOM      1  CA  SER A  13      21.989 -37.106   4.515  0.00  0.00    +0.178 C 
ENDROOT
BRANCH   1   3
ATOM      2  C   PRO A  12      21.999 -34.675   4.598  0.00  0.00    +0.241 C 
ATOM      3  N   SER A  13      21.661 -35.837   5.160  0.00  0.00    -0.295 N 
ATOM      4  H   SER A  13      21.157 -35.839   6.070  0.00  0.00    +0.150 HD
ATOM      5  O   PRO A  12      22.607 -34.591   3.511  0.00  0.00    -0.273 OA
BRANCH   2  11
ATOM      6  C   LEU A  11      19.199 -33.799   5.347  0.00  0.00    +0.244 C 
ATOM      7  N   PRO A  12      20.320 -33.520   6.040  0.00  0.00    -0.272 N 
ATOM      8  CD  PRO A  12      20.403 -33.380   7.511  0.00  0.00    +0.094 C 
ATOM      9  CG  PRO A  12      21.805 -32.919   7.751  0.00  0.00    +0.024 C 
ATOM     10  CB  PRO A  12      22.627 -33.256   6.546  0.00  0.00    +0.031 C 
ATOM     11  CA  PRO A  12      21.630 -33.410   5.379  0.00  0.00    +0.152 C 
ATOM     12  O   LEU A  11      19.187 -34.027   4.131  0.00  0.00    -0.273 OA
BRANCH   6  13
ATOM     13  CA  LEU A  11      17.899 -33.811   6.120  0.00  0.00    +0.149 C 
BRANCH  13  16
ATOM     14  C   ARG A  10      17.034 -31.907   7.376  0.00  0.00    +0.241 C 
ATOM     15  O   ARG A  10      17.134 -32.487   8.471  0.00  0.00    -0.273 OA
ATOM     16  N   LEU A  11      17.413 -32.445   6.220  0.00  0.00    -0.297 N 
ATOM     17  H   LEU A  11      17.360 -31.867   5.357  0.00  0.00    +0.150 HD
BRANCH  14  18
ATOM     18  CA  ARG A  10      16.461 -30.504   7.278  0.00  0.00    +0.149 C 
BRANCH  18  20
ATOM     19  C   TRP A   9      14.243 -30.150   6.346  0.00  0.00    +0.241 C 
ATOM     20  N   ARG A  10      14.995 -30.565   7.364  0.00  0.00    -0.297 N 
ATOM     21  H   ARG A  10      14.542 -30.934   8.224  0.00  0.00    +0.150 HD
ATOM     22  O   TRP A   9      14.723 -29.553   5.376  0.00  0.00    -0.273 OA
BRANCH  19  23
ATOM     23  CA  TRP A   9      12.734 -30.430   6.428  0.00  0.00    +0.153 C 
BRANCH  23  26
ATOM     24  C   PRO A   8      11.036 -28.717   6.149  0.00  0.00    +0.241 C 
ATOM     25  O   PRO A   8      10.805 -28.686   7.358  0.00  0.00    -0.273 OA
ATOM     26  N   TRP A   9      11.961 -29.504   5.605  0.00  0.00    -0.297 N 
ATOM     27  H   TRP A   9      12.136 -29.459   4.581  0.00  0.00    +0.150 HD
BRANCH  24  31
ATOM     28  C   LEU A   7      11.979 -27.076   3.666  0.00  0.00    +0.244 C 
ATOM     29  O   LEU A   7      12.478 -26.349   4.532  0.00  0.00    -0.273 OA
ATOM     30  N   PRO A   8      10.867 -27.796   3.869  0.00  0.00    -0.272 N 
ATOM     31  CA  PRO A   8      10.268 -27.797   5.206  0.00  0.00    +0.152 C 
ATOM     32  CB  PRO A   8       8.841 -28.318   4.958  0.00  0.00    +0.031 C 
ATOM     33  CG  PRO A   8       8.588 -28.052   3.458  0.00  0.00    +0.024 C 
ATOM     34  CD  PRO A   8       9.939 -28.301   2.840  0.00  0.00    +0.094 C 
BRANCH  28  35
ATOM     35  CA  LEU A   7      12.587 -27.138   2.279  0.00  0.00    +0.149 C 
BRANCH  35  37
ATOM     36  C   ASN A   6      12.070 -24.934   1.445  0.00  0.00    +0.241 C 
ATOM     37  N   LEU A   7      12.983 -25.780   1.918  0.00  0.00    -0.297 N 
ATOM     38  H   LEU A   7      13.971 -25.476   2.029  0.00  0.00    +0.150 HD
ATOM     39  O   ASN A   6      10.939 -25.301   1.107  0.00  0.00    -0.273 OA
BRANCH  36  40
ATOM     40  CA  ASN A   6      12.483 -23.475   1.296  0.00  0.00    +0.158 C 
BRANCH  40  42
ATOM     41  C   ASN A   5      11.922 -21.716  -0.285  0.00  0.00    +0.241 C 
ATOM     42  N   ASN A   6      11.547 -22.760   0.445  0.00  0.00    -0.297 N 
ATOM     43  H   ASN A   6      10.556 -23.074   0.407  0.00  0.00    +0.150 HD
ATOM     44  O   ASN A   5      13.056 -21.239  -0.235  0.00  0.00    -0.273 OA
BRANCH  41  45
ATOM     45  CA  ASN A   5      10.852 -21.114  -1.200  0.00  0.00    +0.158 C 
BRANCH  45  48
ATOM     46  C   ASP A   4       9.406 -20.203   0.561  0.00  0.00    +0.241 C 
ATOM     47  O   ASP A   4      10.327 -19.565   1.080  0.00  0.00    -0.273 OA
ATOM     48  N   ASN A   5       9.559 -20.948  -0.532  0.00  0.00    -0.297 N 
ATOM     49  H   ASN A   5       8.727 -21.431  -0.927  0.00  0.00    +0.150 HD
BRANCH  46  50
ATOM     50  CA  ASP A   4       7.997 -20.194   1.174  0.00  0.00    +0.160 C 
BRANCH  50  53
ATOM     51  C   LYS A   3       8.028 -22.560   1.834  0.00  0.00    +0.241 C 
ATOM     52  O   LYS A   3       9.149 -22.466   2.350  0.00  0.00    -0.273 OA
ATOM     53  N   ASP A   4       7.407 -21.539   1.244  0.00  0.00    -0.297 N 
ATOM     54  H   ASP A   4       6.472 -21.699   0.818  0.00  0.00    +0.150 HD
BRANCH  51  55
ATOM     55  CA  LYS A   3       7.304 -23.906   1.807  0.00  0.00    +0.149 C 
BRANCH  55  57
ATOM     56  C   GLY A   2       7.579 -25.727   0.178  0.00  0.00    +0.243 C 
ATOM     57  N   LYS A   3       8.106 -24.815   0.995  0.00  0.00    -0.297 N 
ATOM     58  H   LYS A   3       9.142 -24.748   1.057  0.00  0.00    +0.150 HD
ATOM     59  O   GLY A   2       6.372 -26.000   0.137  0.00  0.00    -0.273 OA
BRANCH  56  60
ATOM     60  CA  GLY A   2       8.568 -26.424  -0.736  0.00  0.00    +0.176 C 
BRANCH  60  62
ATOM     61  C   ILE A   1       9.016 -28.594  -1.655  0.00  0.00    +0.238 C 
ATOM     62  N   GLY A   2       8.128 -27.724  -1.197  0.00  0.00    -0.296 N 
ATOM     63  H   GLY A   2       7.119 -27.974  -1.169  0.00  0.00    +0.150 HD
ATOM     64  O   ILE A   1      10.225 -28.332  -1.737  0.00  0.00    -0.274 OA
BRANCH  61  65
ATOM     65  CA  ILE A   1       8.467 -29.941  -2.124  0.00  0.00    +0.145 C 
BRANCH  65  66
ATOM     66  CB  ILE A   1       8.764 -30.080  -3.631  0.00  0.00    +0.025 C 
ATOM     67  CG2 ILE A   1       8.373 -31.480  -4.134  0.00  0.00    +0.002 C 
BRANCH  66  68
ATOM     68  CG1 ILE A   1       8.030 -28.982  -4.418  0.00  0.00    +0.002 C 
ATOM     69  CD1 ILE A   1       8.271 -29.051  -5.947  0.00  0.00    +0.000 C 
ENDBRANCH  66  68
ENDBRANCH  65  66
BRANCH  65  70
ATOM     70  N   ILE A   1       7.037 -30.065  -1.832  0.00  0.00    -0.238 NA
ATOM     71  H   ILE A   1       6.375 -29.344  -2.183  0.00  0.00    +0.142 HD
ENDBRANCH  65  70
ENDBRANCH  61  65
ENDBRANCH  60  62
ENDBRANCH  56  60
ENDBRANCH  55  57
BRANCH  55  72
ATOM     72  CB  LYS A   3       7.131 -24.445   3.224  0.00  0.00    +0.029 C 
BRANCH  72  73
ATOM     73  CG  LYS A   3       6.400 -23.476   4.164  0.00  0.00    +0.000 C 
BRANCH  73  74
ATOM     74  CD  LYS A   3       5.000 -23.117   3.654  0.00  0.00    -0.024 C 
BRANCH  74  75
ATOM     75  CE  LYS A   3       4.270 -22.233   4.663  0.00  0.00    -0.086 C 
BRANCH  75  76
ATOM     76  NZ  LYS A   3       2.887 -21.881   4.233  0.00  0.00    +0.380 N 
ATOM     77  HZ1 LYS A   3       2.442 -21.281   4.957  0.00  0.00    -0.089 HD
ATOM     78  HZ2 LYS A   3       2.331 -22.751   4.113  0.00  0.00    -0.089 HD
ATOM     79  HZ3 LYS A   3       2.926 -21.366   3.330  0.00  0.00    -0.089 HD
ENDBRANCH  75  76
ENDBRANCH  74  75
ENDBRANCH  73  74
ENDBRANCH  72  73
ENDBRANCH  55  72
ENDBRANCH  51  55
ENDBRANCH  50  53
BRANCH  50  80
ATOM     80  CB  ASP A   4       8.013 -19.540   2.561  0.00  0.00    +0.143 C 
BRANCH  80  81
ATOM     81  CG  ASP A   4       6.617 -19.322   3.123  0.00  0.00    +0.367 C 
ATOM     82  OD2 ASP A   4       6.404 -19.614   4.323  0.00  0.00    -0.246 OA
ATOM     83  OD1 ASP A   4       5.735 -18.858   2.366  0.00  0.00    -0.246 OA
ENDBRANCH  80  81
ENDBRANCH  50  80
ENDBRANCH  46  50
ENDBRANCH  45  48
BRANCH  45  84
ATOM     84  CB  ASN A   5      11.336 -19.787  -1.786  0.00  0.00    +0.114 C 
BRANCH  84  85
ATOM     85  CG  ASN A   5      10.273 -19.098  -2.617  0.00  0.00    +0.222 C 
ATOM     86  ND2 ASN A   5       9.988 -17.833  -2.291  0.00  0.00    -0.329 N 
ATOM     87 HD21 ASN A   5      10.493 -17.372  -1.507  0.00  0.00    +0.145 HD
ATOM     88 HD22 ASN A   5       9.262 -17.310  -2.821  0.00  0.00    +0.145 HD
ATOM     89  OD1 ASN A   5       9.704 -19.697  -3.540  0.00  0.00    -0.275 OA
ENDBRANCH  84  85
ENDBRANCH  45  84
ENDBRANCH  41  45
ENDBRANCH  40  42
BRANCH  40  90
ATOM     90  CB  ASN A   6      12.591 -22.804   2.669  0.00  0.00    +0.114 C 
BRANCH  90  91
ATOM     91  CG  ASN A   6      13.524 -21.609   2.658  0.00  0.00    +0.222 C 
ATOM     92  OD1 ASN A   6      13.112 -20.477   2.926  0.00  0.00    -0.275 OA
ATOM     93  ND2 ASN A   6      14.790 -21.852   2.328  0.00  0.00    -0.329 N 
ATOM     94 HD21 ASN A   6      15.476 -21.071   2.288  0.00  0.00    +0.145 HD
ATOM     95 HD22 ASN A   6      15.093 -22.823   2.110  0.00  0.00    +0.145 HD
ENDBRANCH  90  91
ENDBRANCH  40  90
ENDBRANCH  36  40
ENDBRANCH  35  37
BRANCH  35  96
ATOM     96  CB  LEU A   7      13.765 -28.105   2.255  0.00  0.00    +0.029 C 
BRANCH  96  97
ATOM     97  CG  LEU A   7      14.352 -28.407   0.878  0.00  0.00    +0.002 C 
ATOM     98  CD2 LEU A   7      15.586 -29.294   1.039  0.00  0.00    +0.000 C 
ATOM     99  CD1 LEU A   7      13.309 -29.062  -0.059  0.00  0.00    +0.000 C 
ENDBRANCH  96  97
ENDBRANCH  35  96
ENDBRANCH  28  35
ENDBRANCH  24  31
ENDBRANCH  23  26
BRANCH  23 100
ATOM    100  CB  TRP A   9      12.436 -31.872   6.002  0.00  0.00    +0.057 C 
BRANCH 100 101
ATOM    101  CG  TRP A   9      12.616 -32.054   4.520  0.00  0.00    -0.002 A 
ATOM    102  CD1 TRP A   9      13.792 -32.300   3.859  0.00  0.00    +0.068 A 
ATOM    103  NE1 TRP A   9      13.555 -32.396   2.498  0.00  0.00    -0.352 N 
ATOM    104  CE2 TRP A   9      12.221 -32.178   2.257  0.00  0.00    +0.056 A 
ATOM    105  CZ2 TRP A   9      11.500 -32.179   1.039  0.00  0.00    +0.017 A 
ATOM    106  CH2 TRP A   9      10.147 -31.953   1.098  0.00  0.00    +0.001 A 
ATOM    107  CZ3 TRP A   9       9.495 -31.726   2.321  0.00  0.00    +0.000 A 
ATOM    108  CE3 TRP A   9      10.210 -31.728   3.539  0.00  0.00    +0.001 A 
ATOM    109  HE1 TRP A   9      14.273 -32.601   1.774  0.00  0.00    +0.166 HD
ATOM    110  CD2 TRP A   9      11.591 -31.961   3.505  0.00  0.00    +0.013 A 
ENDBRANCH 100 101
ENDBRANCH  23 100
ENDBRANCH  19  23
ENDBRANCH  18  20
BRANCH  18 111
ATOM    111  CB  ARG A  10      17.079 -29.618   8.360  0.00  0.00    +0.033 C 
BRANCH 111 112
ATOM    112  CG  ARG A  10      18.565 -29.376   8.120  0.00  0.00    +0.045 C 
BRANCH 112 113
ATOM    113  CD  ARG A  10      19.243 -28.792   9.350  0.00  0.00    +0.174 C 
BRANCH 113 114
ATOM    114  NE  ARG A  10      18.776 -27.450   9.659  0.00  0.00    -0.265 N 
ATOM    115  CZ  ARG A  10      18.906 -26.883  10.854  0.00  0.00    +0.342 C 
ATOM    116  NH2 ARG A  10      19.479 -27.553  11.844  0.00  0.00    -0.292 N 
ATOM    117 HH21 ARG A  10      19.582 -27.111  12.780  0.00  0.00    +0.255 HD
ATOM    118 HH22 ARG A  10      19.826 -28.520  11.685  0.00  0.00    +0.255 HD
ATOM    119  NH1 ARG A  10      18.457 -25.655  11.062  0.00  0.00    -0.292 N 
ATOM    120 HH11 ARG A  10      18.561 -25.215  11.999  0.00  0.00    +0.255 HD
ATOM    121 HH12 ARG A  10      18.001 -25.130  10.289  0.00  0.00    +0.255 HD
ATOM    122  HE  ARG A  10      18.315 -26.904   8.903  0.00  0.00    +0.259 HD
ENDBRANCH 113 114
ENDBRANCH 112 113
ENDBRANCH 111 112
ENDBRANCH  18 111
ENDBRANCH  14  18
ENDBRANCH  13  16
BRANCH  13 123
ATOM    123  CB  LEU A  11      16.883 -34.683   5.368  0.00  0.00    +0.029 C 
BRANCH 123 124
ATOM    124  CG  LEU A  11      15.507 -34.897   5.986  0.00  0.00    +0.002 C 
ATOM    125  CD2 LEU A  11      15.624 -35.575   7.361  0.00  0.00    +0.000 C 
ATOM    126  CD1 LEU A  11      14.649 -35.716   5.027  0.00  0.00    +0.000 C 
ENDBRANCH 123 124
ENDBRANCH  13 123
ENDBRANCH   6  13
ENDBRANCH   2  11
ENDBRANCH   1   3
BRANCH   1 127
ATOM    127  C   SER A  13      21.302 -37.198   3.154  0.00  0.00    +0.243 C 
ATOM    128  N   GLU A  14      20.048 -36.748   3.089  0.00  0.00    -0.297 N 
ATOM    129  H   GLU A  14      19.583 -36.412   3.957  0.00  0.00    +0.150 HD
ATOM    130  O   SER A  13      21.911 -37.643   2.180  0.00  0.00    -0.273 OA
BRANCH 128 131
ATOM    131  CA  GLU A  14      19.314 -36.716   1.829  0.00  0.00    +0.149 C 
BRANCH 131 132
ATOM    132  C   GLU A  14      20.077 -35.906   0.781  0.00  0.00    +0.241 C 
ATOM    133  N   LEU A  15      20.528 -34.715   1.162  0.00  0.00    -0.297 N 
ATOM    134  H   LEU A  15      20.345 -34.386   2.132  0.00  0.00    +0.150 HD
ATOM    135  O   GLU A  14      20.271 -36.363  -0.339  0.00  0.00    -0.273 OA
BRANCH 133 136
ATOM    136  CA  LEU A  15      21.273 -33.863   0.247  0.00  0.00    +0.149 C 
BRANCH 136 137
ATOM    137  C   LEU A  15      22.610 -34.495  -0.162  0.00  0.00    +0.241 C 
ATOM    138  N   GLN A  16      23.235 -35.225   0.761  0.00  0.00    -0.297 N 
ATOM    139  H   GLN A  16      22.871 -35.252   1.735  0.00  0.00    +0.150 HD
ATOM    140  O   LEU A  15      23.058 -34.341  -1.315  0.00  0.00    -0.273 OA
BRANCH 138 141
ATOM    141  CA  GLN A  16      24.432 -35.989   0.409  0.00  0.00    +0.149 C 
BRANCH 141 142
ATOM    142  C   GLN A  16      24.087 -37.052  -0.648  0.00  0.00    +0.241 C 
ATOM    143  N   TYR A  17      22.892 -37.625  -0.571  0.00  0.00    -0.297 N 
ATOM    144  H   TYR A  17      22.260 -37.390   0.221  0.00  0.00    +0.150 HD
ATOM    145  O   GLN A  16      24.896 -37.344  -1.525  0.00  0.00    -0.273 OA
BRANCH 143 146
ATOM    146  CA  TYR A  17      22.452 -38.582  -1.586  0.00  0.00    +0.153 C 
BRANCH 146 147
ATOM    147  C   TYR A  17      22.371 -37.887  -2.939  0.00  0.00    +0.241 C 
ATOM    148  N   VAL A  18      21.714 -36.729  -2.934  0.00  0.00    -0.297 N 
ATOM    149  H   VAL A  18      21.274 -36.405  -2.049  0.00  0.00    +0.150 HD
ATOM    150  O   TYR A  17      22.898 -38.386  -3.955  0.00  0.00    -0.273 OA
BRANCH 148 151
ATOM    151  CA  VAL A  18      21.590 -35.900  -4.125  0.00  0.00    +0.149 C 
BRANCH 151 152
ATOM    152  C   VAL A  18      22.960 -35.571  -4.712  0.00  0.00    +0.241 C 
ATOM    153  N   LYS A  19      23.897 -35.171  -3.853  0.00  0.00    -0.297 N 
ATOM    154  H   LYS A  19      23.681 -35.110  -2.837  0.00  0.00    +0.150 HD
ATOM    155  O   VAL A  18      23.169 -35.690  -5.931  0.00  0.00    -0.273 OA
BRANCH 153 156
ATOM    156  CA  LYS A  19      25.224 -34.819  -4.340  0.00  0.00    +0.149 C 
BRANCH 156 157
ATOM    157  C   LYS A  19      25.875 -36.017  -5.014  0.00  0.00    +0.241 C 
ATOM    158  N   LYS A  20      25.853 -37.169  -4.341  0.00  0.00    -0.297 N 
ATOM    159  H   LYS A  20      25.410 -37.204  -3.401  0.00  0.00    +0.150 HD
ATOM    160  O   LYS A  19      26.371 -35.901  -6.139  0.00  0.00    -0.273 OA
BRANCH 158 161
ATOM    161  CA  LYS A  20      26.443 -38.384  -4.905  0.00  0.00    +0.149 C 
BRANCH 161 162
ATOM    162  C   LYS A  20      25.743 -38.783  -6.199  0.00  0.00    +0.241 C 
ATOM    163  N   THR A  21      24.419 -38.722  -6.210  0.00  0.00    -0.295 N 
ATOM    164  H   THR A  21      23.909 -38.351  -5.383  0.00  0.00    +0.150 HD
ATOM    165  O   LYS A  20      26.393 -39.141  -7.173  0.00  0.00    -0.273 OA
BRANCH 163 166
ATOM    166  CA  THR A  21      23.677 -39.174  -7.379  0.00  0.00    +0.176 C 
BRANCH 166 167
ATOM    167  C   THR A  21      23.942 -38.302  -8.620  0.00  0.00    +0.243 C 
ATOM    168  N   THR A  22      24.028 -36.981  -8.433  0.00  0.00    -0.295 N 
ATOM    169  H   THR A  22      24.053 -36.600  -7.466  0.00  0.00    +0.150 HD
ATOM    170  O   THR A  21      24.079 -38.828  -9.731  0.00  0.00    -0.273 OA
BRANCH 168 171
ATOM    171  CA  THR A  22      24.088 -36.062  -9.575  0.00  0.00    +0.176 C 
BRANCH 171 172
ATOM    172  C   THR A  22      25.504 -35.713 -10.027  0.00  0.00    +0.243 C 
ATOM    173  N   MET A  23      26.504 -36.212  -9.304  0.00  0.00    -0.297 N 
ATOM    174  H   MET A  23      26.286 -36.838  -8.503  0.00  0.00    +0.150 HD
ATOM    175  O   THR A  22      25.677 -34.975 -11.005  0.00  0.00    -0.273 OA
BRANCH 173 176
ATOM    176  CA  MET A  23      27.898 -35.904  -9.605  0.00  0.00    +0.149 C 
BRANCH 176 177
ATOM    177  C   MET A  23      28.236 -36.081 -11.094  0.00  0.00    +0.241 C 
ATOM    178  O   MET A  23      27.957 -37.136 -11.684  0.00  0.00    -0.273 OA
ATOM    179  N   GLY A  24      28.826 -35.045 -11.692  0.00  0.00    -0.295 N 
ATOM    180  H   GLY A  24      28.976 -34.170 -11.151  0.00  0.00    +0.150 HD
BRANCH 179 181
ATOM    181  CA  GLY A  24      29.268 -35.100 -13.080  0.00  0.00    +0.176 C 
BRANCH 181 182
ATOM    182  C   GLY A  24      28.143 -34.864 -14.077  0.00  0.00    +0.243 C 
ATOM    183  N   HIS A  25      26.997 -34.418 -13.567  0.00  0.00    -0.298 N 
ATOM    184  H   HIS A  25      26.947 -34.210 -12.549  0.00  0.00    +0.150 HD
ATOM    185  O   GLY A  24      28.304 -35.084 -15.283  0.00  0.00    -0.273 OA
BRANCH 183 186
ATOM    186  CA  HIS A  25      25.806 -34.211 -14.389  0.00  0.00    +0.143 C 
BRANCH 186 187
ATOM    187  C   HIS A  25      25.193 -32.848 -14.114  0.00  0.00    +0.227 C 
ATOM    188  O   HIS A  25      25.212 -32.374 -12.971  0.00  0.00    -0.286 OA
ENDBRANCH 186 187
BRANCH 186 189
ATOM    189  CB  HIS A  25      24.778 -35.311 -14.127  0.00  0.00    +0.075 C 
BRANCH 189 190
ATOM    190  CG  HIS A  25      25.285 -36.690 -14.428  0.00  0.00    +0.082 A 
ATOM    191  CD2 HIS A  25      25.439 -37.779 -13.636  0.00  0.00    +0.115 A 
ATOM    192  NE2 HIS A  25      25.954 -38.784 -14.421  0.00  0.00    -0.221 NA
ATOM    193  CE1 HIS A  25      26.115 -38.327 -15.653  0.00  0.00    +0.199 A 
ATOM    194  ND1 HIS A  25      25.718 -37.066 -15.683  0.00  0.00    -0.227 NA
ENDBRANCH 189 190
ENDBRANCH 186 189
ENDBRANCH 183 186
ENDBRANCH 181 182
ENDBRANCH 179 181
ENDBRANCH 176 177
BRANCH 176 195
ATOM    195  CB  MET A  23      28.829 -36.783  -8.768  0.00  0.00    +0.041 C 
BRANCH 195 196
ATOM    196  CG  MET A  23      30.314 -36.444  -8.941  0.00  0.00    +0.060 C 
BRANCH 196 197
ATOM    197  SD  MET A  23      31.374 -37.884  -8.715  0.00  0.00    -0.139 S 
ATOM    198  CE  MET A  23      30.415 -39.156  -9.538  0.00  0.00    +0.069 C 
ENDBRANCH 196 197
ENDBRANCH 195 196
ENDBRANCH 176 195
ENDBRANCH 173 176
ENDBRANCH 171 172
BRANCH 171 199
ATOM    199  CB  THR A  22      23.369 -34.736  -9.291  0.00  0.00    +0.137 C 
ATOM    200  CG2 THR A  22      21.884 -34.958  -9.061  0.00  0.00    +0.034 C 
BRANCH 199 201
ATOM    201  OG1 THR A  22      23.964 -34.114  -8.144  0.00  0.00    -0.382 OA
ATOM    202  HG1 THR A  22      23.876 -34.715  -7.362  0.00  0.00    +0.210 HD
ENDBRANCH 199 201
ENDBRANCH 171 199
ENDBRANCH 168 171
ENDBRANCH 166 167
BRANCH 166 203
ATOM    203  CB  THR A  21      22.165 -39.233  -7.088  0.00  0.00    +0.137 C 
ATOM    204  CG2 THR A  21      21.401 -39.770  -8.302  0.00  0.00    +0.034 C 
BRANCH 203 205
ATOM    205  OG1 THR A  21      21.926 -40.094  -5.964  0.00  0.00    -0.382 OA
ATOM    206  HG1 THR A  21      22.258 -41.004  -6.170  0.00  0.00    +0.210 HD
ENDBRANCH 203 205
ENDBRANCH 166 203
ENDBRANCH 163 166
ENDBRANCH 161 162
BRANCH 161 207
ATOM    207  CB  LYS A  20      26.385 -39.549  -3.906  0.00  0.00    +0.029 C 
BRANCH 207 208
ATOM    208  CG  LYS A  20      26.919 -40.868  -4.460  0.00  0.00    +0.000 C 
BRANCH 208 209
ATOM    209  CD  LYS A  20      26.942 -41.957  -3.386  0.00  0.00    -0.024 C 
BRANCH 209 210
ATOM    210  CE  LYS A  20      26.215 -43.213  -3.843  0.00  0.00    -0.086 C 
BRANCH 210 211
ATOM    211  NZ  LYS A  20      24.736 -43.002  -3.948  0.00  0.00    +0.380 N 
ATOM    212  HZ1 LYS A  20      24.359 -42.729  -3.018  0.00  0.00    -0.089 HD
ATOM    213  HZ2 LYS A  20      24.283 -43.884  -4.262  0.00  0.00    -0.089 HD
ATOM    214  HZ3 LYS A  20      24.543 -42.247  -4.637  0.00  0.00    -0.089 HD
ENDBRANCH 210 211
ENDBRANCH 209 210
ENDBRANCH 208 209
ENDBRANCH 207 208
ENDBRANCH 161 207
ENDBRANCH 158 161
ENDBRANCH 156 157
BRANCH 156 215
ATOM    215  CB  LYS A  19      26.122 -34.282  -3.222  0.00  0.00    +0.029 C 
BRANCH 215 216
ATOM    216  CG  LYS A  19      27.520 -33.904  -3.727  0.00  0.00    +0.000 C 
BRANCH 216 217
ATOM    217  CD  LYS A  19      28.396 -33.359  -2.600  0.00  0.00    -0.024 C 
BRANCH 217 218
ATOM    218  CE  LYS A  19      29.799 -32.986  -3.091  0.00  0.00    -0.086 C 
BRANCH 218 219
ATOM    219  NZ  LYS A  19      30.627 -32.456  -1.965  0.00  0.00    +0.380 N 
ATOM    220  HZ1 LYS A  19      30.710 -33.183  -1.226  0.00  0.00    -0.089 HD
ATOM    221  HZ2 LYS A  19      30.171 -31.609  -1.570  0.00  0.00    -0.089 HD
ATOM    222  HZ3 LYS A  19      31.573 -32.209  -2.319  0.00  0.00    -0.089 HD
ENDBRANCH 218 219
ENDBRANCH 217 218
ENDBRANCH 216 217
ENDBRANCH 215 216
ENDBRANCH 156 215
ENDBRANCH 153 156
ENDBRANCH 151 152
BRANCH 151 223
ATOM    223  CB  VAL A  18      20.843 -34.597  -3.816  0.00  0.00    +0.027 C 
ATOM    224  CG2 VAL A  18      19.415 -34.899  -3.395  0.00  0.00    +0.002 C 
ATOM    225  CG1 VAL A  18      20.861 -33.669  -5.032  0.00  0.00    +0.002 C 
ENDBRANCH 151 223
ENDBRANCH 148 151
ENDBRANCH 146 147
BRANCH 146 226
ATOM    226  CB  TYR A  17      21.083 -39.164  -1.228  0.00  0.00    +0.055 C 
BRANCH 226 227
ATOM    227  CG  TYR A  17      20.425 -39.951  -2.354  0.00  0.00    -0.020 A 
ATOM    228  CD2 TYR A  17      20.792 -41.272  -2.614  0.00  0.00    -0.001 A 
ATOM    229  CE2 TYR A  17      20.192 -41.998  -3.625  0.00  0.00    +0.036 A 
ATOM    230  CZ  TYR A  17      19.200 -41.409  -4.385  0.00  0.00    +0.134 A 
ATOM    231  CE1 TYR A  17      18.810 -40.109  -4.140  0.00  0.00    +0.036 A 
ATOM    232  CD1 TYR A  17      19.426 -39.387  -3.126  0.00  0.00    -0.001 A 
BRANCH 230 233
ATOM    233  OH  TYR A  17      18.597 -42.126  -5.388  0.00  0.00    -0.506 OA
ATOM    234  HH  TYR A  17      18.993 -43.033  -5.428  0.00  0.00    +0.292 HD
ENDBRANCH 230 233
ENDBRANCH 226 227
ENDBRANCH 146 226
ENDBRANCH 143 146
ENDBRANCH 141 142
BRANCH 141 235
ATOM    235  CB  GLN A  16      25.087 -36.636   1.638  0.00  0.00    +0.039 C 
BRANCH 235 236
ATOM    236  CG  GLN A  16      25.711 -35.639   2.632  0.00  0.00    +0.087 C 
BRANCH 236 237
ATOM    237  CD  GLN A  16      25.850 -36.221   4.044  0.00  0.00    +0.219 C 
ATOM    238  NE2 GLN A  16      26.200 -35.369   5.012  0.00  0.00    -0.329 N 
ATOM    239 HE21 GLN A  16      26.303 -35.707   5.990  0.00  0.00    +0.145 HD
ATOM    240 HE22 GLN A  16      26.370 -34.368   4.787  0.00  0.00    +0.145 HD
ATOM    241  OE1 GLN A  16      25.637 -37.420   4.258  0.00  0.00    -0.275 OA
ENDBRANCH 236 237
ENDBRANCH 235 236
ENDBRANCH 141 235
ENDBRANCH 138 141
ENDBRANCH 136 137
BRANCH 136 242
ATOM    242  CB  LEU A  15      21.468 -32.474   0.853  0.00  0.00    +0.029 C 
BRANCH 242 243
ATOM    243  CG  LEU A  15      20.133 -31.782   1.166  0.00  0.00    +0.002 C 
ATOM    244  CD2 LEU A  15      20.353 -30.404   1.837  0.00  0.00    +0.000 C 
ATOM    245  CD1 LEU A  15      19.289 -31.650  -0.112  0.00  0.00    +0.000 C 
ENDBRANCH 242 243
ENDBRANCH 136 242
ENDBRANCH 133 136
ENDBRANCH 131 132
BRANCH 131 246
ATOM    246  CB  GLU A  14      17.920 -36.122   2.023  0.00  0.00    +0.041 C 
BRANCH 246 247
ATOM    247  CG  GLU A  14      16.909 -36.647   1.021  0.00  0.00    +0.116 C 
BRANCH 247 248
ATOM    248  CD  GLU A  14      16.899 -35.897  -0.317  0.00  0.00    +0.365 C 
ATOM    249  OE2 GLU A  14      16.993 -34.639  -0.307  0.00  0.00    -0.246 OA
ATOM    250  OE1 GLU A  14      16.737 -36.561  -1.379  0.00  0.00    -0.246 OA
ENDBRANCH 247 248
ENDBRANCH 246 247
ENDBRANCH 131 246
ENDBRANCH 128 131
ENDBRANCH   1 127
BRANCH   1 251
ATOM    251  CB  SER A  13      21.611 -38.287   5.401  0.00  0.00    +0.166 C 
BRANCH 251 252
ATOM    252  OG  SER A  13      21.909 -39.517   4.757  0.00  0.00    -0.380 OA
ATOM    253  H   SER A  13      22.879 -39.560   4.563  0.00  0.00    +0.211 HD
ENDBRANCH 251 252
ENDBRANCH   1 251
TORSDOF 104
REMARK  Name = ../refined-set-2016/4elg/4elg_pocket.pdb
REMARK  247 active torsions:
REMARK  status: ('A' for Active; 'I' for Inactive)
REMARK    1  A    between atoms: _1  and  _3
REMARK    2  A    between atoms: _3  and  _4
REMARK    3  A    between atoms: _3  and  _6
REMARK    4  A    between atoms: _6  and  _7
REMARK    5  A    between atoms: _13  and  _15
REMARK    6  A    between atoms: _15  and  _16
REMARK    7  A    between atoms: _15  and  _18
REMARK    8  A    between atoms: _18  and  _19
REMARK    9  A    between atoms: _19  and  _20
REMARK   10  A    between atoms: _22  and  _24
REMARK   11  A    between atoms: _24  and  _25
REMARK   12  A    between atoms: _24  and  _27
REMARK   13  A    between atoms: _30  and  _32
REMARK   14  A    between atoms: _32  and  _33
REMARK   15  A    between atoms: _36  and  _38
REMARK   16  A    between atoms: _38  and  _39
REMARK   17  A    between atoms: _38  and  _41
REMARK   18  A    between atoms: _41  and  _42
REMARK   19  A    between atoms: _42  and  _43
REMARK   20  A    between atoms: _45  and  _47
REMARK   21  A    between atoms: _47  and  _48
REMARK   22  A    between atoms: _47  and  _50
REMARK   23  A    between atoms: _50  and  _51
REMARK   24  A    between atoms: _54  and  _56
REMARK   25  A    between atoms: _56  and  _57
REMARK   26  A    between atoms: _59  and  _61
REMARK   27  A    between atoms: _61  and  _62
REMARK   28  A    between atoms: _61  and  _64
REMARK   29  A    between atoms: _64  and  _65
REMARK   30  A    between atoms: _65  and  _66
REMARK   31  A    between atoms: _66  and  _67
REMARK   32  A    between atoms: _67  and  _68
REMARK   33  A    between atoms: _72  and  _74
REMARK   34  A    between atoms: _74  and  _75
REMARK   35  A    between atoms: _74  and  _77
REMARK   36  A    between atoms: _77  and  _78
REMARK   37  A    between atoms: _81  and  _83
REMARK   38  A    between atoms: _83  and  _84
REMARK   39  A    between atoms: _83  and  _86
REMARK   40  A    between atoms: _86  and  _87
REMARK   41  A    between atoms: _92  and  _94
REMARK   42  A    between atoms: _94  and  _95
REMARK   43  A    between atoms: _94  and  _97
REMARK   44  A    between atoms: _97  and  _98
REMARK   45  A    between atoms: _103  and  _105
REMARK   46  A    between atoms: _105  and  _106
REMARK   47  A    between atoms: _105  and  _108
REMARK   48  A    between atoms: _108  and  _109
REMARK   49  A    between atoms: _113  and  _114
REMARK   50  A    between atoms: _119  and  _121
REMARK   51  A    between atoms: _121  and  _122
REMARK   52  A    between atoms: _121  and  _124
REMARK   53  A    between atoms: _124  and  _125
REMARK   54  A    between atoms: _135  and  _137
REMARK   55  A    between atoms: _137  and  _138
REMARK   56  A    between atoms: _137  and  _140
REMARK   57  A    between atoms: _140  and  _141
REMARK   58  A    between atoms: _141  and  _142
REMARK   59  A    between atoms: _142  and  _143
REMARK   60  A    between atoms: _152  and  _154
REMARK   61  A    between atoms: _154  and  _155
REMARK   62  A    between atoms: _154  and  _157
REMARK   63  A    between atoms: _157  and  _158
REMARK   64  A    between atoms: _162  and  _163
REMARK   65  A    between atoms: _168  and  _170
REMARK   66  A    between atoms: _170  and  _171
REMARK   67  A    between atoms: _170  and  _173
REMARK   68  A    between atoms: _173  and  _174
REMARK   69  A    between atoms: _176  and  _178
REMARK   70  A    between atoms: _178  and  _179
REMARK   71  A    between atoms: _178  and  _181
REMARK   72  A    between atoms: _181  and  _182
REMARK   73  A    between atoms: _182  and  _183
REMARK   74  A    between atoms: _186  and  _188
REMARK   75  A    between atoms: _188  and  _189
REMARK   76  A    between atoms: _188  and  _191
REMARK   77  A    between atoms: _191  and  _192
REMARK   78  A    between atoms: _195  and  _197
REMARK   79  A    between atoms: _197  and  _198
REMARK   80  A    between atoms: _197  and  _200
REMARK   81  A    between atoms: _200  and  _201
REMARK   82  A    between atoms: _201  and  _202
REMARK   83  A    between atoms: _207  and  _209
REMARK   84  A    between atoms: _209  and  _210
REMARK   85  A    between atoms: _209  and  _212
REMARK   86  A    between atoms: _212  and  _213
REMARK   87  A    between atoms: _218  and  _219
REMARK   88  A    between atoms: _221  and  _223
REMARK   89  A    between atoms: _223  and  _224
REMARK   90  A    between atoms: _223  and  _226
REMARK   91  A    between atoms: _229  and  _231
REMARK   92  A    between atoms: _231  and  _232
REMARK   93  A    between atoms: _231  and  _234
REMARK   94  A    between atoms: _234  and  _235
REMARK   95  A    between atoms: _235  and  _236
REMARK   96  A    between atoms: _236  and  _237
REMARK   97  A    between atoms: _237  and  _238
REMARK   98  A    between atoms: _242  and  _244
REMARK   99  A    between atoms: _244  and  _245
REMARK  100  A    between atoms: _244  and  _247
REMARK  101  A    between atoms: _247  and  _248
REMARK  102  A    between atoms: _248  and  _249
REMARK  103  A    between atoms: _249  and  _250
REMARK  104  A    between atoms: _250  and  _251
REMARK  105  A    between atoms: _255  and  _257
REMARK  106  A    between atoms: _257  and  _258
REMARK  107  A    between atoms: _257  and  _260
REMARK  108  A    between atoms: _260  and  _261
REMARK  109  A    between atoms: _264  and  _266
REMARK  110  A    between atoms: _266  and  _267
REMARK  111  A    between atoms: _266  and  _269
REMARK  112  A    between atoms: _269  and  _270
REMARK  113  A    between atoms: _273  and  _275
REMARK  114  A    between atoms: _275  and  _276
REMARK  115  A    between atoms: _275  and  _278
REMARK  116  A    between atoms: _278  and  _279
REMARK  117  A    between atoms: _279  and  _280
REMARK  118  A    between atoms: _282  and  _284
REMARK  119  A    between atoms: _284  and  _285
REMARK  120  A    between atoms: _287  and  _289
REMARK  121  A    between atoms: _289  and  _290
REMARK  122  A    between atoms: _289  and  _292
REMARK  123  A    between atoms: _292  and  _293
REMARK  124  A    between atoms: _298  and  _300
REMARK  125  A    between atoms: _300  and  _301
REMARK  126  A    between atoms: _300  and  _303
REMARK  127  A    between atoms: _303  and  _304
REMARK  128  A    between atoms: _307  and  _309
REMARK  129  A    between atoms: _309  and  _310
REMARK  130  A    between atoms: _309  and  _312
REMARK  131  A    between atoms: _312  and  _313
REMARK  132  A    between atoms: _316  and  _318
REMARK  133  A    between atoms: _318  and  _319
REMARK  134  A    between atoms: _318  and  _321
REMARK  135  A    between atoms: _321  and  _322
REMARK  136  A    between atoms: _322  and  _323
REMARK  137  A    between atoms: _325  and  _327
REMARK  138  A    between atoms: _327  and  _328
REMARK  139  A    between atoms: _327  and  _330
REMARK  140  A    between atoms: _330  and  _331
REMARK  141  A    between atoms: _331  and  _332
REMARK  142  A    between atoms: _332  and  _333
REMARK  143  A    between atoms: _333  and  _334
REMARK  144  A    between atoms: _338  and  _340
REMARK  145  A    between atoms: _340  and  _341
REMARK  146  A    between atoms: _340  and  _343
REMARK  147  A    between atoms: _343  and  _344
REMARK  148  A    between atoms: _349  and  _351
REMARK  149  A    between atoms: _351  and  _352
REMARK  150  A    between atoms: _351  and  _354
REMARK  151  A    between atoms: _354  and  _355
REMARK  152  A    between atoms: _360  and  _361
REMARK  153  A    between atoms: _363  and  _365
REMARK  154  A    between atoms: _365  and  _366
REMARK  155  A    between atoms: _365  and  _368
REMARK  156  A    between atoms: _368  and  _369
REMARK  157  A    between atoms: _369  and  _370
REMARK  158  A    between atoms: _373  and  _375
REMARK  159  A    between atoms: _375  and  _376
REMARK  160  A    between atoms: _379  and  _381
REMARK  161  A    between atoms: _381  and  _382
REMARK  162  A    between atoms: _381  and  _384
REMARK  163  A    between atoms: _384  and  _385
REMARK  164  A    between atoms: _388  and  _390
REMARK  165  A    between atoms: _390  and  _391
REMARK  166  A    between atoms: _393  and  _395
REMARK  167  A    between atoms: _395  and  _396
REMARK  168  A    between atoms: _395  and  _398
REMARK  169  A    between atoms: _398  and  _399
REMARK  170  A    between atoms: _399  and  _400
REMARK  171  A    between atoms: _400  and  _401
REMARK  172  A    between atoms: _411  and  _412
REMARK  173  A    between atoms: _417  and  _419
REMARK  174  A    between atoms: _419  and  _420
REMARK  175  A    between atoms: _419  and  _422
REMARK  176  A    between atoms: _422  and  _423
REMARK  177  A    between atoms: _427  and  _428
REMARK  178  A    between atoms: _433  and  _435
REMARK  179  A    between atoms: _435  and  _436
REMARK  180  A    between atoms: _438  and  _440
REMARK  181  A    between atoms: _440  and  _441
REMARK  182  A    between atoms: _440  and  _443
REMARK  183  A    between atoms: _443  and  _444
REMARK  184  A    between atoms: _444  and  _445
REMARK  185  A    between atoms: _445  and  _446
REMARK  186  A    between atoms: _455  and  _457
REMARK  187  A    between atoms: _457  and  _458
REMARK  188  A    between atoms: _457  and  _460
REMARK  189  A    between atoms: _460  and  _461
REMARK  190  A    between atoms: _466  and  _468
REMARK  191  A    between atoms: _468  and  _469
REMARK  192  A    between atoms: _468  and  _471
REMARK  193  A    between atoms: _471  and  _472
REMARK  194  A    between atoms: _478  and  _480
REMARK  195  A    between atoms: _480  and  _481
REMARK  196  A    between atoms: _480  and  _483
REMARK  197  A    between atoms: _483  and  _484
REMARK  198  A    between atoms: _487  and  _489
REMARK  199  A    between atoms: _489  and  _490
REMARK  200  A    between atoms: _489  and  _492
REMARK  201  A    between atoms: _492  and  _493
REMARK  202  A    between atoms: _499  and  _501
REMARK  203  A    between atoms: _501  and  _502
REMARK  204  A    between atoms: _504  and  _506
REMARK  205  A    between atoms: _506  and  _507
REMARK  206  A    between atoms: _509  and  _511
REMARK  207  A    between atoms: _511  and  _512
REMARK  208  A    between atoms: _511  and  _514
REMARK  209  A    between atoms: _514  and  _515
REMARK  210  A    between atoms: _520  and  _521
REMARK  211  A    between atoms: _523  and  _525
REMARK  212  A    between atoms: _525  and  _526
REMARK  213  A    between atoms: _525  and  _528
REMARK  214  A    between atoms: _528  and  _529
REMARK  215  A    between atoms: _534  and  _535
REMARK  216  A    between atoms: _537  and  _539
REMARK  217  A    between atoms: _539  and  _540
REMARK  218  A    between atoms: _539  and  _542
REMARK  219  A    between atoms: _542  and  _543
REMARK  220  A    between atoms: _546  and  _548
REMARK  221  A    between atoms: _548  and  _549
REMARK  222  A    between atoms: _548  and  _551
REMARK  223  A    between atoms: _551  and  _552
REMARK  224  A    between atoms: _555  and  _557
REMARK  225  A    between atoms: _557  and  _558
REMARK  226  A    between atoms: _557  and  _560
REMARK  227  A    between atoms: _560  and  _561
REMARK  228  A    between atoms: _561  and  _562
REMARK  229  A    between atoms: _562  and  _563
REMARK  230  A    between atoms: _563  and  _564
REMARK  231  A    between atoms: _568  and  _570
REMARK  232  A    between atoms: _570  and  _571
REMARK  233  A    between atoms: _570  and  _573
REMARK  234  A    between atoms: _573  and  _574
REMARK  235  A    between atoms: _577  and  _579
REMARK  236  A    between atoms: _579  and  _580
REMARK  237  A    between atoms: _579  and  _582
REMARK  238  A    between atoms: _582  and  _583
REMARK  239  A    between atoms: _586  and  _588
REMARK  240  A    between atoms: _588  and  _589
REMARK  241  A    between atoms: _588  and  _591
REMARK  242  A    between atoms: _591  and  _592
REMARK  243  A    between atoms: _597  and  _598
REMARK  244  A    between atoms: _600  and  _602
REMARK  245  A    between atoms: _602  and  _603
REMARK  246  A    between atoms: _602  and  _605
REMARK  247  A    between atoms: _605  and  _606
REMARK                            x       y       z     vdW  Elec       q    Type
REMARK                         _______ _______ _______ _____ _____    ______ ____
ROOT
ATOM      1  CA  ILE A   2      18.537 -27.981 -14.117  0.00  0.00    +0.148 C 
ENDROOT
BRANCH   1   4
ATOM      2  C   LEU A   1      20.646 -28.678 -13.180  0.00  0.00    +0.238 C 
ATOM      3  O   LEU A   1      21.174 -27.602 -13.472  0.00  0.00    -0.274 OA
ATOM      4  N   ILE A   2      19.384 -28.969 -13.479  0.00  0.00    -0.297 N 
ATOM      5  H   ILE A   2      19.003 -29.910 -13.254  0.00  0.00    +0.150 HD
BRANCH   2   6
ATOM      6  CA  LEU A   1      21.439 -29.746 -12.458  0.00  0.00    +0.145 C 
BRANCH   6   7
ATOM      7  N   LEU A   1      22.648 -29.977 -13.240  0.00  0.00    -0.238 NA
ATOM      8  H   LEU A   1      23.457 -29.338 -13.102  0.00  0.00    +0.142 HD
ENDBRANCH   6   7
BRANCH   6   9
ATOM      9  CB  LEU A   1      21.783 -29.221 -11.061  0.00  0.00    +0.026 C 
BRANCH   9  10
ATOM     10  CG  LEU A   1      22.519 -30.175 -10.136  0.00  0.00    +0.002 C 
ATOM     11  CD2 LEU A   1      22.625 -29.575  -8.719  0.00  0.00    +0.000 C 
ATOM     12  CD1 LEU A   1      21.781 -31.497 -10.122  0.00  0.00    +0.000 C 
ENDBRANCH   9  10
ENDBRANCH   6   9
ENDBRANCH   2   6
ENDBRANCH   1   4
BRANCH   1  13
ATOM     13  C   ILE A   2      17.519 -27.499 -13.103  0.00  0.00    +0.241 C 
ATOM     14  O   ILE A   2      16.775 -28.309 -12.553  0.00  0.00    -0.273 OA
ATOM     15  N   MET A   3      17.466 -26.186 -12.870  0.00  0.00    -0.298 N 
ATOM     16  H   MET A   3      18.088 -25.540 -13.397  0.00  0.00    +0.150 HD
BRANCH  15  17
ATOM     17  CA  MET A   3      16.540 -25.655 -11.881  0.00  0.00    +0.138 C 
BRANCH  17  18
ATOM     18  C   MET A   3      16.015 -24.279 -12.261  0.00  0.00    +0.227 C 
ATOM     19  O   MET A   3      16.678 -23.520 -12.971  0.00  0.00    -0.286 OA
ENDBRANCH  17  18
BRANCH  17  20
ATOM     20  CB  MET A   3      17.229 -25.569 -10.512  0.00  0.00    +0.039 C 
BRANCH  20  21
ATOM     21  CG  MET A   3      18.245 -24.449 -10.434  0.00  0.00    +0.060 C 
BRANCH  21  22
ATOM     22  SD  MET A   3      19.323 -24.560  -8.978  0.00  0.00    -0.139 S 
ATOM     23  CE  MET A   3      20.137 -26.122  -9.281  0.00  0.00    +0.069 C 
ENDBRANCH  21  22
ENDBRANCH  20  21
ENDBRANCH  17  20
ENDBRANCH  15  17
ENDBRANCH   1  13
BRANCH   1  24
ATOM     24  CB  ILE A   2      17.769 -28.566 -15.293  0.00  0.00    +0.027 C 
ATOM     25  CG2 ILE A   2      17.106 -27.432 -16.083  0.00  0.00    +0.002 C 
BRANCH  24  26
ATOM     26  CG1 ILE A   2      18.686 -29.455 -16.150  0.00  0.00    +0.002 C 
ATOM     27  CD1 ILE A   2      19.890 -28.746 -16.755  0.00  0.00    +0.000 C 
ENDBRANCH  24  26
ENDBRANCH   1  24
TORSDOF 13
REMARK  Name = ../refined-set-2016/4elg/4elg_pocket.pdb
REMARK  247 active torsions:
REMARK  status: ('A' for Active; 'I' for Inactive)
REMARK    1  A    between atoms: _1  and  _3
REMARK    2  A    between atoms: _3  and  _4
REMARK    3  A    between atoms: _3  and  _6
REMARK    4  A    between atoms: _6  and  _7
REMARK    5  A    between atoms: _13  and  _15
REMARK    6  A    between atoms: _15  and  _16
REMARK    7  A    between atoms: _15  and  _18
REMARK    8  A    between atoms: _18  and  _19
REMARK    9  A    between atoms: _19  and  _20
REMARK   10  A    between atoms: _22  and  _24
REMARK   11  A    between atoms: _24  and  _25
REMARK   12  A    between atoms: _24  and  _27
REMARK   13  A    between atoms: _30  and  _32
REMARK   14  A    between atoms: _32  and  _33
REMARK   15  A    between atoms: _36  and  _38
REMARK   16  A    between atoms: _38  and  _39
REMARK   17  A    between atoms: _38  and  _41
REMARK   18  A    between atoms: _41  and  _42
REMARK   19  A    between atoms: _42  and  _43
REMARK   20  A    between atoms: _45  and  _47
REMARK   21  A    between atoms: _47  and  _48
REMARK   22  A    between atoms: _47  and  _50
REMARK   23  A    between atoms: _50  and  _51
REMARK   24  A    between atoms: _54  and  _56
REMARK   25  A    between atoms: _56  and  _57
REMARK   26  A    between atoms: _59  and  _61
REMARK   27  A    between atoms: _61  and  _62
REMARK   28  A    between atoms: _61  and  _64
REMARK   29  A    between atoms: _64  and  _65
REMARK   30  A    between atoms: _65  and  _66
REMARK   31  A    between atoms: _66  and  _67
REMARK   32  A    between atoms: _67  and  _68
REMARK   33  A    between atoms: _72  and  _74
REMARK   34  A    between atoms: _74  and  _75
REMARK   35  A    between atoms: _74  and  _77
REMARK   36  A    between atoms: _77  and  _78
REMARK   37  A    between atoms: _81  and  _83
REMARK   38  A    between atoms: _83  and  _84
REMARK   39  A    between atoms: _83  and  _86
REMARK   40  A    between atoms: _86  and  _87
REMARK   41  A    between atoms: _92  and  _94
REMARK   42  A    between atoms: _94  and  _95
REMARK   43  A    between atoms: _94  and  _97
REMARK   44  A    between atoms: _97  and  _98
REMARK   45  A    between atoms: _103  and  _105
REMARK   46  A    between atoms: _105  and  _106
REMARK   47  A    between atoms: _105  and  _108
REMARK   48  A    between atoms: _108  and  _109
REMARK   49  A    between atoms: _113  and  _114
REMARK   50  A    between atoms: _119  and  _121
REMARK   51  A    between atoms: _121  and  _122
REMARK   52  A    between atoms: _121  and  _124
REMARK   53  A    between atoms: _124  and  _125
REMARK   54  A    between atoms: _135  and  _137
REMARK   55  A    between atoms: _137  and  _138
REMARK   56  A    between atoms: _137  and  _140
REMARK   57  A    between atoms: _140  and  _141
REMARK   58  A    between atoms: _141  and  _142
REMARK   59  A    between atoms: _142  and  _143
REMARK   60  A    between atoms: _152  and  _154
REMARK   61  A    between atoms: _154  and  _155
REMARK   62  A    between atoms: _154  and  _157
REMARK   63  A    between atoms: _157  and  _158
REMARK   64  A    between atoms: _162  and  _163
REMARK   65  A    between atoms: _168  and  _170
REMARK   66  A    between atoms: _170  and  _171
REMARK   67  A    between atoms: _170  and  _173
REMARK   68  A    between atoms: _173  and  _174
REMARK   69  A    between atoms: _176  and  _178
REMARK   70  A    between atoms: _178  and  _179
REMARK   71  A    between atoms: _178  and  _181
REMARK   72  A    between atoms: _181  and  _182
REMARK   73  A    between atoms: _182  and  _183
REMARK   74  A    between atoms: _186  and  _188
REMARK   75  A    between atoms: _188  and  _189
REMARK   76  A    between atoms: _188  and  _191
REMARK   77  A    between atoms: _191  and  _192
REMARK   78  A    between atoms: _195  and  _197
REMARK   79  A    between atoms: _197  and  _198
REMARK   80  A    between atoms: _197  and  _200
REMARK   81  A    between atoms: _200  and  _201
REMARK   82  A    between atoms: _201  and  _202
REMARK   83  A    between atoms: _207  and  _209
REMARK   84  A    between atoms: _209  and  _210
REMARK   85  A    between atoms: _209  and  _212
REMARK   86  A    between atoms: _212  and  _213
REMARK   87  A    between atoms: _218  and  _219
REMARK   88  A    between atoms: _221  and  _223
REMARK   89  A    between atoms: _223  and  _224
REMARK   90  A    between atoms: _223  and  _226
REMARK   91  A    between atoms: _229  and  _231
REMARK   92  A    between atoms: _231  and  _232
REMARK   93  A    between atoms: _231  and  _234
REMARK   94  A    between atoms: _234  and  _235
REMARK   95  A    between atoms: _235  and  _236
REMARK   96  A    between atoms: _236  and  _237
REMARK   97  A    between atoms: _237  and  _238
REMARK   98  A    between atoms: _242  and  _244
REMARK   99  A    between atoms: _244  and  _245
REMARK  100  A    between atoms: _244  and  _247
REMARK  101  A    between atoms: _247  and  _248
REMARK  102  A    between atoms: _248  and  _249
REMARK  103  A    between atoms: _249  and  _250
REMARK  104  A    between atoms: _250  and  _251
REMARK  105  A    between atoms: _255  and  _257
REMARK  106  A    between atoms: _257  and  _258
REMARK  107  A    between atoms: _257  and  _260
REMARK  108  A    between atoms: _260  and  _261
REMARK  109  A    between atoms: _264  and  _266
REMARK  110  A    between atoms: _266  and  _267
REMARK  111  A    between atoms: _266  and  _269
REMARK  112  A    between atoms: _269  and  _270
REMARK  113  A    between atoms: _273  and  _275
REMARK  114  A    between atoms: _275  and  _276
REMARK  115  A    between atoms: _275  and  _278
REMARK  116  A    between atoms: _278  and  _279
REMARK  117  A    between atoms: _279  and  _280
REMARK  118  A    between atoms: _282  and  _284
REMARK  119  A    between atoms: _284  and  _285
REMARK  120  A    between atoms: _287  and  _289
REMARK  121  A    between atoms: _289  and  _290
REMARK  122  A    between atoms: _289  and  _292
REMARK  123  A    between atoms: _292  and  _293
REMARK  124  A    between atoms: _298  and  _300
REMARK  125  A    between atoms: _300  and  _301
REMARK  126  A    between atoms: _300  and  _303
REMARK  127  A    between atoms: _303  and  _304
REMARK  128  A    between atoms: _307  and  _309
REMARK  129  A    between atoms: _309  and  _310
REMARK  130  A    between atoms: _309  and  _312
REMARK  131  A    between atoms: _312  and  _313
REMARK  132  A    between atoms: _316  and  _318
REMARK  133  A    between atoms: _318  and  _319
REMARK  134  A    between atoms: _318  and  _321
REMARK  135  A    between atoms: _321  and  _322
REMARK  136  A    between atoms: _322  and  _323
REMARK  137  A    between atoms: _325  and  _327
REMARK  138  A    between atoms: _327  and  _328
REMARK  139  A    between atoms: _327  and  _330
REMARK  140  A    between atoms: _330  and  _331
REMARK  141  A    between atoms: _331  and  _332
REMARK  142  A    between atoms: _332  and  _333
REMARK  143  A    between atoms: _333  and  _334
REMARK  144  A    between atoms: _338  and  _340
REMARK  145  A    between atoms: _340  and  _341
REMARK  146  A    between atoms: _340  and  _343
REMARK  147  A    between atoms: _343  and  _344
REMARK  148  A    between atoms: _349  and  _351
REMARK  149  A    between atoms: _351  and  _352
REMARK  150  A    between atoms: _351  and  _354
REMARK  151  A    between atoms: _354  and  _355
REMARK  152  A    between atoms: _360  and  _361
REMARK  153  A    between atoms: _363  and  _365
REMARK  154  A    between atoms: _365  and  _366
REMARK  155  A    between atoms: _365  and  _368
REMARK  156  A    between atoms: _368  and  _369
REMARK  157  A    between atoms: _369  and  _370
REMARK  158  A    between atoms: _373  and  _375
REMARK  159  A    between atoms: _375  and  _376
REMARK  160  A    between atoms: _379  and  _381
REMARK  161  A    between atoms: _381  and  _382
REMARK  162  A    between atoms: _381  and  _384
REMARK  163  A    between atoms: _384  and  _385
REMARK  164  A    between atoms: _388  and  _390
REMARK  165  A    between atoms: _390  and  _391
REMARK  166  A    between atoms: _393  and  _395
REMARK  167  A    between atoms: _395  and  _396
REMARK  168  A    between atoms: _395  and  _398
REMARK  169  A    between atoms: _398  and  _399
REMARK  170  A    between atoms: _399  and  _400
REMARK  171  A    between atoms: _400  and  _401
REMARK  172  A    between atoms: _411  and  _412
REMARK  173  A    between atoms: _417  and  _419
REMARK  174  A    between atoms: _419  and  _420
REMARK  175  A    between atoms: _419  and  _422
REMARK  176  A    between atoms: _422  and  _423
REMARK  177  A    between atoms: _427  and  _428
REMARK  178  A    between atoms: _433  and  _435
REMARK  179  A    between atoms: _435  and  _436
REMARK  180  A    between atoms: _438  and  _440
REMARK  181  A    between atoms: _440  and  _441
REMARK  182  A    between atoms: _440  and  _443
REMARK  183  A    between atoms: _443  and  _444
REMARK  184  A    between atoms: _444  and  _445
REMARK  185  A    between atoms: _445  and  _446
REMARK  186  A    between atoms: _455  and  _457
REMARK  187  A    between atoms: _457  and  _458
REMARK  188  A    between atoms: _457  and  _460
REMARK  189  A    between atoms: _460  and  _461
REMARK  190  A    between atoms: _466  and  _468
REMARK  191  A    between atoms: _468  and  _469
REMARK  192  A    between atoms: _468  and  _471
REMARK  193  A    between atoms: _471  and  _472
REMARK  194  A    between atoms: _478  and  _480
REMARK  195  A    between atoms: _480  and  _481
REMARK  196  A    between atoms: _480  and  _483
REMARK  197  A    between atoms: _483  and  _484
REMARK  198  A    between atoms: _487  and  _489
REMARK  199  A    between atoms: _489  and  _490
REMARK  200  A    between atoms: _489  and  _492
REMARK  201  A    between atoms: _492  and  _493
REMARK  202  A    between atoms: _499  and  _501
REMARK  203  A    between atoms: _501  and  _502
REMARK  204  A    between atoms: _504  and  _506
REMARK  205  A    between atoms: _506  and  _507
REMARK  206  A    between atoms: _509  and  _511
REMARK  207  A    between atoms: _511  and  _512
REMARK  208  A    between atoms: _511  and  _514
REMARK  209  A    between atoms: _514  and  _515
REMARK  210  A    between atoms: _520  and  _521
REMARK  211  A    between atoms: _523  and  _525
REMARK  212  A    between atoms: _525  and  _526
REMARK  213  A    between atoms: _525  and  _528
REMARK  214  A    between atoms: _528  and  _529
REMARK  215  A    between atoms: _534  and  _535
REMARK  216  A    between atoms: _537  and  _539
REMARK  217  A    between atoms: _539  and  _540
REMARK  218  A    between atoms: _539  and  _542
REMARK  219  A    between atoms: _542  and  _543
REMARK  220  A    between atoms: _546  and  _548
REMARK  221  A    between atoms: _548  and  _549
REMARK  222  A    between atoms: _548  and  _551
REMARK  223  A    between atoms: _551  and  _552
REMARK  224  A    between atoms: _555  and  _557
REMARK  225  A    between atoms: _557  and  _558
REMARK  226  A    between atoms: _557  and  _560
REMARK  227  A    between atoms: _560  and  _561
REMARK  228  A    between atoms: _561  and  _562
REMARK  229  A    between atoms: _562  and  _563
REMARK  230  A    between atoms: _563  and  _564
REMARK  231  A    between atoms: _568  and  _570
REMARK  232  A    between atoms: _570  and  _571
REMARK  233  A    between atoms: _570  and  _573
REMARK  234  A    between atoms: _573  and  _574
REMARK  235  A    between atoms: _577  and  _579
REMARK  236  A    between atoms: _579  and  _580
REMARK  237  A    between atoms: _579  and  _582
REMARK  238  A    between atoms: _582  and  _583
REMARK  239  A    between atoms: _586  and  _588
REMARK  240  A    between atoms: _588  and  _589
REMARK  241  A    between atoms: _588  and  _591
REMARK  242  A    between atoms: _591  and  _592
REMARK  243  A    between atoms: _597  and  _598
REMARK  244  A    between atoms: _600  and  _602
REMARK  245  A    between atoms: _602  and  _603
REMARK  246  A    between atoms: _602  and  _605
REMARK  247  A    between atoms: _605  and  _606
REMARK                            x       y       z     vdW  Elec       q    Type
REMARK                         _______ _______ _______ _____ _____    ______ ____
ROOT
ATOM      1  C   ILE A   6      20.689 -21.630  -2.112  0.00  0.00    +0.241 C 
ATOM      2  O   ILE A   6      21.576 -21.790  -1.268  0.00  0.00    -0.273 OA
ATOM      3  N   GLY A   7      20.586 -20.523  -2.844  0.00  0.00    -0.295 N 
ATOM      4  H   GLY A   7      19.919 -20.504  -3.642  0.00  0.00    +0.150 HD
ENDROOT
BRANCH   1   5
ATOM      5  CA  ILE A   6      19.629 -22.709  -2.364  0.00  0.00    +0.149 C 
BRANCH   5   8
ATOM      6  C   ALA A   5      17.560 -21.525  -1.798  0.00  0.00    +0.241 C 
ATOM      7  O   ALA A   5      17.776 -21.562  -0.580  0.00  0.00    -0.273 OA
ATOM      8  N   ILE A   6      18.366 -22.069  -2.705  0.00  0.00    -0.297 N 
ATOM      9  H   ILE A   6      18.081 -22.036  -3.705  0.00  0.00    +0.150 HD
BRANCH   6  10
ATOM     10  CA  ALA A   5      16.328 -20.821  -2.362  0.00  0.00    +0.149 C 
ATOM     11  CB  ALA A   5      15.183 -21.796  -2.544  0.00  0.00    +0.031 C 
BRANCH  10  14
ATOM     12  C   GLU A   4      17.431 -19.102  -3.672  0.00  0.00    +0.241 C 
ATOM     13  O   GLU A   4      17.840 -18.544  -2.654  0.00  0.00    -0.273 OA
ATOM     14  N   ALA A   5      16.672 -20.193  -3.635  0.00  0.00    -0.297 N 
ATOM     15  H   ALA A   5      16.319 -20.604  -4.523  0.00  0.00    +0.150 HD
BRANCH  12  16
ATOM     16  CA  GLU A   4      17.782 -18.545  -5.056  0.00  0.00    +0.149 C 
BRANCH  16  19
ATOM     17  C   TYR A   3      18.461 -20.595  -6.164  0.00  0.00    +0.241 C 
ATOM     18  O   TYR A   3      19.326 -20.789  -5.310  0.00  0.00    -0.273 OA
ATOM     19  N   GLU A   4      17.645 -19.546  -6.117  0.00  0.00    -0.297 N 
ATOM     20  H   GLU A   4      16.904 -19.435  -6.839  0.00  0.00    +0.150 HD
BRANCH  17  21
ATOM     21  CA  TYR A   3      18.291 -21.575  -7.348  0.00  0.00    +0.153 C 
BRANCH  21  24
ATOM     22  C   ASN A   2      16.240 -22.555  -6.496  0.00  0.00    +0.241 C 
ATOM     23  O   ASN A   2      16.756 -22.763  -5.395  0.00  0.00    -0.273 OA
ATOM     24  N   TYR A   3      16.905 -22.004  -7.521  0.00  0.00    -0.297 N 
ATOM     25  H   TYR A   3      16.434 -21.882  -8.440  0.00  0.00    +0.150 HD
BRANCH  22  26
ATOM     26  CA  ASN A   2      14.773 -22.892  -6.716  0.00  0.00    +0.158 C 
BRANCH  26  29
ATOM     27  C   LYS A   1      14.044 -20.573  -6.684  0.00  0.00    +0.238 C 
ATOM     28  O   LYS A   1      14.460 -20.392  -5.528  0.00  0.00    -0.274 OA
ATOM     29  N   ASN A   2      14.114 -21.745  -7.311  0.00  0.00    -0.297 N 
ATOM     30  H   ASN A   2      13.684 -21.841  -8.253  0.00  0.00    +0.150 HD
BRANCH  27  31
ATOM     31  CA  LYS A   1      13.408 -19.437  -7.483  0.00  0.00    +0.145 C 
BRANCH  31  32
ATOM     32  N   LYS A   1      13.884 -19.424  -8.870  0.00  0.00    -0.238 NA
ATOM     33  H   LYS A   1      13.185 -19.511  -9.635  0.00  0.00    +0.142 HD
ENDBRANCH  31  32
BRANCH  31  34
ATOM     34  CB  LYS A   1      11.871 -19.553  -7.439  0.00  0.00    +0.026 C 
BRANCH  34  35
ATOM     35  CG  LYS A   1      11.124 -18.325  -7.973  0.00  0.00    -0.000 C 
BRANCH  35  36
ATOM     36  CD  LYS A   1       9.595 -18.504  -7.915  0.00  0.00    -0.024 C 
BRANCH  36  37
ATOM     37  CE  LYS A   1       9.020 -19.240  -9.141  0.00  0.00    -0.086 C 
BRANCH  37  38
ATOM     38  NZ  LYS A   1       8.981 -18.418 -10.395  0.00  0.00    +0.380 N 
ATOM     39  HZ1 LYS A   1       8.388 -17.578 -10.239  0.00  0.00    -0.089 HD
ATOM     40  HZ2 LYS A   1       9.946 -18.121 -10.644  0.00  0.00    -0.089 HD
ATOM     41  HZ3 LYS A   1       8.582 -18.987 -11.169  0.00  0.00    -0.089 HD
ENDBRANCH  37  38
ENDBRANCH  36  37
ENDBRANCH  35  36
ENDBRANCH  34  35
ENDBRANCH  31  34
ENDBRANCH  27  31
ENDBRANCH  26  29
BRANCH  26  42
ATOM     42  CB  ASN A   2      14.633 -24.128  -7.624  0.00  0.00    +0.114 C 
BRANCH  42  43
ATOM     43  CG  ASN A   2      14.388 -25.417  -6.845  0.00  0.00    +0.222 C 
ATOM     44  OD1 ASN A   2      13.569 -25.460  -5.920  0.00  0.00    -0.275 OA
ATOM     45  ND2 ASN A   2      15.092 -26.477  -7.225  0.00  0.00    -0.329 N 
ATOM     46 HD21 ASN A   2      14.964 -27.387  -6.739  0.00  0.00    +0.145 HD
ATOM     47 HD22 ASN A   2      15.771 -26.397  -8.009  0.00  0.00    +0.145 HD
ENDBRANCH  42  43
ENDBRANCH  26  42
ENDBRANCH  22  26
ENDBRANCH  21  24
BRANCH  21  48
ATOM     48  CB  TYR A   3      18.887 -20.960  -8.630  0.00  0.00    +0.055 C 
BRANCH  48  49
ATOM     49  CG  TYR A   3      20.278 -20.409  -8.380  0.00  0.00    -0.020 A 
ATOM     50  CD2 TYR A   3      20.483 -19.047  -8.177  0.00  0.00    -0.001 A 
ATOM     51  CE2 TYR A   3      21.751 -18.539  -7.908  0.00  0.00    +0.036 A 
ATOM     52  CZ  TYR A   3      22.833 -19.395  -7.838  0.00  0.00    +0.134 A 
ATOM     53  CE1 TYR A   3      22.661 -20.755  -8.025  0.00  0.00    +0.036 A 
ATOM     54  CD1 TYR A   3      21.380 -21.257  -8.292  0.00  0.00    -0.001 A 
BRANCH  52  55
ATOM     55  OH  TYR A   3      24.084 -18.874  -7.577  0.00  0.00    -0.506 OA
ATOM     56  HH  TYR A   3      24.749 -19.608  -7.559  0.00  0.00    +0.292 HD
ENDBRANCH  52  55
ENDBRANCH  48  49
ENDBRANCH  21  48
ENDBRANCH  17  21
ENDBRANCH  16  19
BRANCH  16  57
ATOM     57  CB  GLU A   4      16.947 -17.305  -5.363  0.00  0.00    +0.041 C 
BRANCH  57  58
ATOM     58  CG  GLU A   4      17.270 -16.687  -6.734  0.00  0.00    +0.116 C 
BRANCH  58  59
ATOM     59  CD  GLU A   4      16.438 -15.449  -7.039  0.00  0.00    +0.365 C 
ATOM     60  OE2 GLU A   4      15.521 -15.131  -6.248  0.00  0.00    -0.246 OA
ATOM     61  OE1 GLU A   4      16.705 -14.795  -8.073  0.00  0.00    -0.246 OA
ENDBRANCH  58  59
ENDBRANCH  57  58
ENDBRANCH  16  57
ENDBRANCH  12  16
ENDBRANCH  10  14
ENDBRANCH   6  10
ENDBRANCH   5   8
BRANCH   5  62
ATOM     62  CB  ILE A   6      20.058 -23.665  -3.495  0.00  0.00    +0.027 C 
ATOM     63  CG2 ILE A   6      21.318 -24.415  -3.114  0.00  0.00    +0.002 C 
BRANCH  62  64
ATOM     64  CG1 ILE A   6      18.908 -24.625  -3.821  0.00  0.00    +0.002 C 
ATOM     65  CD1 ILE A   6      19.125 -25.453  -5.059  0.00  0.00    +0.000 C 
ENDBRANCH  62  64
ENDBRANCH   5  62
ENDBRANCH   1   5
BRANCH   3  66
ATOM     66  CA  GLY A   7      21.380 -19.340  -2.559  0.00  0.00    +0.176 C 
BRANCH  66  67
ATOM     67  C   GLY A   7      22.802 -19.324  -3.096  0.00  0.00    +0.243 C 
ATOM     68  O   GLY A   7      23.490 -18.294  -3.010  0.00  0.00    -0.273 OA
ATOM     69  N   ARG A   8      23.251 -20.451  -3.646  0.00  0.00    -0.297 N 
ATOM     70  H   ARG A   8      22.637 -21.290  -3.676  0.00  0.00    +0.150 HD
BRANCH  69  71
ATOM     71  CA  ARG A   8      24.601 -20.519  -4.209  0.00  0.00    +0.149 C 
BRANCH  71  72
ATOM     72  C   ARG A   8      24.719 -21.618  -5.270  0.00  0.00    +0.244 C 
ATOM     73  O   ARG A   8      23.866 -22.510  -5.338  0.00  0.00    -0.273 OA
ATOM     74  N   PRO A   9      25.767 -21.544  -6.118  0.00  0.00    -0.272 N 
ATOM     75  CD  PRO A   9      26.717 -20.436  -6.338  0.00  0.00    +0.094 C 
ATOM     76  CG  PRO A   9      27.158 -20.658  -7.754  0.00  0.00    +0.024 C 
ATOM     77  CB  PRO A   9      27.143 -22.145  -7.938  0.00  0.00    +0.031 C 
ATOM     78  CA  PRO A   9      25.985 -22.648  -7.063  0.00  0.00    +0.152 C 
BRANCH  78  79
ATOM     79  C   PRO A   9      26.411 -23.922  -6.331  0.00  0.00    +0.241 C 
ATOM     80  O   PRO A   9      27.264 -23.863  -5.439  0.00  0.00    -0.273 OA
ATOM     81  N   LEU A  10      25.814 -25.053  -6.694  0.00  0.00    -0.297 N 
ATOM     82  H   LEU A  10      25.024 -25.018  -7.370  0.00  0.00    +0.150 HD
BRANCH  81  83
ATOM     83  CA  LEU A  10      26.245 -26.342  -6.163  0.00  0.00    +0.149 C 
BRANCH  83  84
ATOM     84  C   LEU A  10      27.456 -26.837  -6.965  0.00  0.00    +0.244 C 
ATOM     85  N   PRO A  11      28.628 -26.868  -6.315  0.00  0.00    -0.272 N 
ATOM     86  CD  PRO A  11      28.799 -26.719  -4.856  0.00  0.00    +0.094 C 
ATOM     87  CG  PRO A  11      30.234 -27.116  -4.630  0.00  0.00    +0.024 C 
ATOM     88  CB  PRO A  11      30.948 -26.820  -5.922  0.00  0.00    +0.031 C 
ATOM     89  CA  PRO A  11      29.903 -27.087  -7.011  0.00  0.00    +0.152 C 
ATOM     90  O   LEU A  10      27.342 -27.172  -8.150  0.00  0.00    -0.273 OA
BRANCH  89  91
ATOM     91  C   PRO A  11      30.038 -28.506  -7.550  0.00  0.00    +0.241 C 
ATOM     92  O   PRO A  11      29.343 -29.406  -7.082  0.00  0.00    -0.273 OA
ATOM     93  N   GLY A  12      30.925 -28.692  -8.522  0.00  0.00    -0.295 N 
ATOM     94  H   GLY A  12      31.474 -27.879  -8.866  0.00  0.00    +0.150 HD
BRANCH  93  95
ATOM     95  CA  GLY A  12      31.151 -29.998  -9.118  0.00  0.00    +0.176 C 
BRANCH  95  96
ATOM     96  C   GLY A  12      30.099 -30.378 -10.145  0.00  0.00    +0.243 C 
ATOM     97  N   ARG A  13      29.217 -29.430 -10.445  0.00  0.00    -0.298 N 
ATOM     98  H   ARG A  13      29.310 -28.492 -10.006  0.00  0.00    +0.150 HD
ATOM     99  O   GLY A  12      30.081 -31.505 -10.660  0.00  0.00    -0.273 OA
BRANCH  97 100
ATOM    100  CA  ARG A  13      28.123 -29.676 -11.374  0.00  0.00    +0.137 C 
BRANCH 100 101
ATOM    101  C   ARG A  13      27.878 -28.484 -12.287  0.00  0.00    +0.227 C 
ATOM    102  O   ARG A  13      28.153 -27.334 -11.919  0.00  0.00    -0.286 OA
ENDBRANCH 100 101
BRANCH 100 103
ATOM    103  CB  ARG A  13      26.836 -30.007 -10.603  0.00  0.00    +0.031 C 
BRANCH 103 104
ATOM    104  CG  ARG A  13      26.730 -31.466 -10.187  0.00  0.00    +0.045 C 
BRANCH 104 105
ATOM    105  CD  ARG A  13      26.554 -31.610  -8.689  0.00  0.00    +0.174 C 
BRANCH 105 106
ATOM    106  NE  ARG A  13      27.185 -32.830  -8.182  0.00  0.00    -0.265 N 
ATOM    107  CZ  ARG A  13      28.381 -32.858  -7.595  0.00  0.00    +0.342 C 
ATOM    108  NH2 ARG A  13      28.895 -33.999  -7.156  0.00  0.00    -0.292 N 
ATOM    109 HH21 ARG A  13      29.830 -34.007  -6.700  0.00  0.00    +0.255 HD
ATOM    110 HH22 ARG A  13      28.364 -34.886  -7.268  0.00  0.00    +0.255 HD
ATOM    111  NH1 ARG A  13      29.064 -31.735  -7.436  0.00  0.00    -0.292 N 
ATOM    112 HH11 ARG A  13      29.998 -31.755  -6.978  0.00  0.00    +0.255 HD
ATOM    113 HH12 ARG A  13      28.667 -30.833  -7.769  0.00  0.00    +0.255 HD
ATOM    114  HE  ARG A  13      26.670 -33.727  -8.286  0.00  0.00    +0.259 HD
ENDBRANCH 105 106
ENDBRANCH 104 105
ENDBRANCH 103 104
ENDBRANCH 100 103
ENDBRANCH  97 100
ENDBRANCH  95  96
ENDBRANCH  93  95
ENDBRANCH  89  91
ENDBRANCH  83  84
BRANCH  83 115
ATOM    115  CB  LEU A  10      25.091 -27.345  -6.183  0.00  0.00    +0.029 C 
BRANCH 115 116
ATOM    116  CG  LEU A  10      23.895 -26.852  -5.359  0.00  0.00    +0.002 C 
ATOM    117  CD2 LEU A  10      24.310 -26.630  -3.905  0.00  0.00    +0.000 C 
ATOM    118  CD1 LEU A  10      22.692 -27.794  -5.456  0.00  0.00    +0.000 C 
ENDBRANCH 115 116
ENDBRANCH  83 115
ENDBRANCH  81  83
ENDBRANCH  78  79
ENDBRANCH  71  72
BRANCH  71 119
ATOM    119  CB  ARG A   8      25.656 -20.686  -3.093  0.00  0.00    +0.033 C 
BRANCH 119 120
ATOM    120  CG  ARG A   8      25.936 -22.122  -2.657  0.00  0.00    +0.045 C 
BRANCH 120 121
ATOM    121  CD  ARG A   8      24.819 -22.695  -1.792  0.00  0.00    +0.174 C 
BRANCH 121 122
ATOM    122  NE  ARG A   8      25.147 -24.035  -1.301  0.00  0.00    -0.265 N 
ATOM    123  CZ  ARG A   8      24.321 -24.803  -0.595  0.00  0.00    +0.342 C 
ATOM    124  NH2 ARG A   8      24.713 -26.007  -0.193  0.00  0.00    -0.292 N 
ATOM    125 HH21 ARG A   8      24.067 -26.607   0.359  0.00  0.00    +0.255 HD
ATOM    126 HH22 ARG A   8      25.666 -26.350  -0.430  0.00  0.00    +0.255 HD
ATOM    127  NH1 ARG A   8      23.104 -24.372  -0.289  0.00  0.00    -0.292 N 
ATOM    128 HH11 ARG A   8      22.462 -24.976   0.263  0.00  0.00    +0.255 HD
ATOM    129 HH12 ARG A   8      22.792 -23.430  -0.601  0.00  0.00    +0.255 HD
ATOM    130  HE  ARG A   8      26.091 -24.413  -1.519  0.00  0.00    +0.259 HD
ENDBRANCH 121 122
ENDBRANCH 120 121
ENDBRANCH 119 120
ENDBRANCH  71 119
ENDBRANCH  69  71
ENDBRANCH  66  67
ENDBRANCH   3  66
TORSDOF 49
REMARK  Name = ../refined-set-2016/4elg/4elg_pocket.pdb
REMARK  247 active torsions:
REMARK  status: ('A' for Active; 'I' for Inactive)
REMARK    1  A    between atoms: _1  and  _3
REMARK    2  A    between atoms: _3  and  _4
REMARK    3  A    between atoms: _3  and  _6
REMARK    4  A    between atoms: _6  and  _7
REMARK    5  A    between atoms: _13  and  _15
REMARK    6  A    between atoms: _15  and  _16
REMARK    7  A    between atoms: _15  and  _18
REMARK    8  A    between atoms: _18  and  _19
REMARK    9  A    between atoms: _19  and  _20
REMARK   10  A    between atoms: _22  and  _24
REMARK   11  A    between atoms: _24  and  _25
REMARK   12  A    between atoms: _24  and  _27
REMARK   13  A    between atoms: _30  and  _32
REMARK   14  A    between atoms: _32  and  _33
REMARK   15  A    between atoms: _36  and  _38
REMARK   16  A    between atoms: _38  and  _39
REMARK   17  A    between atoms: _38  and  _41
REMARK   18  A    between atoms: _41  and  _42
REMARK   19  A    between atoms: _42  and  _43
REMARK   20  A    between atoms: _45  and  _47
REMARK   21  A    between atoms: _47  and  _48
REMARK   22  A    between atoms: _47  and  _50
REMARK   23  A    between atoms: _50  and  _51
REMARK   24  A    between atoms: _54  and  _56
REMARK   25  A    between atoms: _56  and  _57
REMARK   26  A    between atoms: _59  and  _61
REMARK   27  A    between atoms: _61  and  _62
REMARK   28  A    between atoms: _61  and  _64
REMARK   29  A    between atoms: _64  and  _65
REMARK   30  A    between atoms: _65  and  _66
REMARK   31  A    between atoms: _66  and  _67
REMARK   32  A    between atoms: _67  and  _68
REMARK   33  A    between atoms: _72  and  _74
REMARK   34  A    between atoms: _74  and  _75
REMARK   35  A    between atoms: _74  and  _77
REMARK   36  A    between atoms: _77  and  _78
REMARK   37  A    between atoms: _81  and  _83
REMARK   38  A    between atoms: _83  and  _84
REMARK   39  A    between atoms: _83  and  _86
REMARK   40  A    between atoms: _86  and  _87
REMARK   41  A    between atoms: _92  and  _94
REMARK   42  A    between atoms: _94  and  _95
REMARK   43  A    between atoms: _94  and  _97
REMARK   44  A    between atoms: _97  and  _98
REMARK   45  A    between atoms: _103  and  _105
REMARK   46  A    between atoms: _105  and  _106
REMARK   47  A    between atoms: _105  and  _108
REMARK   48  A    between atoms: _108  and  _109
REMARK   49  A    between atoms: _113  and  _114
REMARK   50  A    between atoms: _119  and  _121
REMARK   51  A    between atoms: _121  and  _122
REMARK   52  A    between atoms: _121  and  _124
REMARK   53  A    between atoms: _124  and  _125
REMARK   54  A    between atoms: _135  and  _137
REMARK   55  A    between atoms: _137  and  _138
REMARK   56  A    between atoms: _137  and  _140
REMARK   57  A    between atoms: _140  and  _141
REMARK   58  A    between atoms: _141  and  _142
REMARK   59  A    between atoms: _142  and  _143
REMARK   60  A    between atoms: _152  and  _154
REMARK   61  A    between atoms: _154  and  _155
REMARK   62  A    between atoms: _154  and  _157
REMARK   63  A    between atoms: _157  and  _158
REMARK   64  A    between atoms: _162  and  _163
REMARK   65  A    between atoms: _168  and  _170
REMARK   66  A    between atoms: _170  and  _171
REMARK   67  A    between atoms: _170  and  _173
REMARK   68  A    between atoms: _173  and  _174
REMARK   69  A    between atoms: _176  and  _178
REMARK   70  A    between atoms: _178  and  _179
REMARK   71  A    between atoms: _178  and  _181
REMARK   72  A    between atoms: _181  and  _182
REMARK   73  A    between atoms: _182  and  _183
REMARK   74  A    between atoms: _186  and  _188
REMARK   75  A    between atoms: _188  and  _189
REMARK   76  A    between atoms: _188  and  _191
REMARK   77  A    between atoms: _191  and  _192
REMARK   78  A    between atoms: _195  and  _197
REMARK   79  A    between atoms: _197  and  _198
REMARK   80  A    between atoms: _197  and  _200
REMARK   81  A    between atoms: _200  and  _201
REMARK   82  A    between atoms: _201  and  _202
REMARK   83  A    between atoms: _207  and  _209
REMARK   84  A    between atoms: _209  and  _210
REMARK   85  A    between atoms: _209  and  _212
REMARK   86  A    between atoms: _212  and  _213
REMARK   87  A    between atoms: _218  and  _219
REMARK   88  A    between atoms: _221  and  _223
REMARK   89  A    between atoms: _223  and  _224
REMARK   90  A    between atoms: _223  and  _226
REMARK   91  A    between atoms: _229  and  _231
REMARK   92  A    between atoms: _231  and  _232
REMARK   93  A    between atoms: _231  and  _234
REMARK   94  A    between atoms: _234  and  _235
REMARK   95  A    between atoms: _235  and  _236
REMARK   96  A    between atoms: _236  and  _237
REMARK   97  A    between atoms: _237  and  _238
REMARK   98  A    between atoms: _242  and  _244
REMARK   99  A    between atoms: _244  and  _245
REMARK  100  A    between atoms: _244  and  _247
REMARK  101  A    between atoms: _247  and  _248
REMARK  102  A    between atoms: _248  and  _249
REMARK  103  A    between atoms: _249  and  _250
REMARK  104  A    between atoms: _250  and  _251
REMARK  105  A    between atoms: _255  and  _257
REMARK  106  A    between atoms: _257  and  _258
REMARK  107  A    between atoms: _257  and  _260
REMARK  108  A    between atoms: _260  and  _261
REMARK  109  A    between atoms: _264  and  _266
REMARK  110  A    between atoms: _266  and  _267
REMARK  111  A    between atoms: _266  and  _269
REMARK  112  A    between atoms: _269  and  _270
REMARK  113  A    between atoms: _273  and  _275
REMARK  114  A    between atoms: _275  and  _276
REMARK  115  A    between atoms: _275  and  _278
REMARK  116  A    between atoms: _278  and  _279
REMARK  117  A    between atoms: _279  and  _280
REMARK  118  A    between atoms: _282  and  _284
REMARK  119  A    between atoms: _284  and  _285
REMARK  120  A    between atoms: _287  and  _289
REMARK  121  A    between atoms: _289  and  _290
REMARK  122  A    between atoms: _289  and  _292
REMARK  123  A    between atoms: _292  and  _293
REMARK  124  A    between atoms: _298  and  _300
REMARK  125  A    between atoms: _300  and  _301
REMARK  126  A    between atoms: _300  and  _303
REMARK  127  A    between atoms: _303  and  _304
REMARK  128  A    between atoms: _307  and  _309
REMARK  129  A    between atoms: _309  and  _310
REMARK  130  A    between atoms: _309  and  _312
REMARK  131  A    between atoms: _312  and  _313
REMARK  132  A    between atoms: _316  and  _318
REMARK  133  A    between atoms: _318  and  _319
REMARK  134  A    between atoms: _318  and  _321
REMARK  135  A    between atoms: _321  and  _322
REMARK  136  A    between atoms: _322  and  _323
REMARK  137  A    between atoms: _325  and  _327
REMARK  138  A    between atoms: _327  and  _328
REMARK  139  A    between atoms: _327  and  _330
REMARK  140  A    between atoms: _330  and  _331
REMARK  141  A    between atoms: _331  and  _332
REMARK  142  A    between atoms: _332  and  _333
REMARK  143  A    between atoms: _333  and  _334
REMARK  144  A    between atoms: _338  and  _340
REMARK  145  A    between atoms: _340  and  _341
REMARK  146  A    between atoms: _340  and  _343
REMARK  147  A    between atoms: _343  and  _344
REMARK  148  A    between atoms: _349  and  _351
REMARK  149  A    between atoms: _351  and  _352
REMARK  150  A    between atoms: _351  and  _354
REMARK  151  A    between atoms: _354  and  _355
REMARK  152  A    between atoms: _360  and  _361
REMARK  153  A    between atoms: _363  and  _365
REMARK  154  A    between atoms: _365  and  _366
REMARK  155  A    between atoms: _365  and  _368
REMARK  156  A    between atoms: _368  and  _369
REMARK  157  A    between atoms: _369  and  _370
REMARK  158  A    between atoms: _373  and  _375
REMARK  159  A    between atoms: _375  and  _376
REMARK  160  A    between atoms: _379  and  _381
REMARK  161  A    between atoms: _381  and  _382
REMARK  162  A    between atoms: _381  and  _384
REMARK  163  A    between atoms: _384  and  _385
REMARK  164  A    between atoms: _388  and  _390
REMARK  165  A    between atoms: _390  and  _391
REMARK  166  A    between atoms: _393  and  _395
REMARK  167  A    between atoms: _395  and  _396
REMARK  168  A    between atoms: _395  and  _398
REMARK  169  A    between atoms: _398  and  _399
REMARK  170  A    between atoms: _399  and  _400
REMARK  171  A    between atoms: _400  and  _401
REMARK  172  A    between atoms: _411  and  _412
REMARK  173  A    between atoms: _417  and  _419
REMARK  174  A    between atoms: _419  and  _420
REMARK  175  A    between atoms: _419  and  _422
REMARK  176  A    between atoms: _422  and  _423
REMARK  177  A    between atoms: _427  and  _428
REMARK  178  A    between atoms: _433  and  _435
REMARK  179  A    between atoms: _435  and  _436
REMARK  180  A    between atoms: _438  and  _440
REMARK  181  A    between atoms: _440  and  _441
REMARK  182  A    between atoms: _440  and  _443
REMARK  183  A    between atoms: _443  and  _444
REMARK  184  A    between atoms: _444  and  _445
REMARK  185  A    between atoms: _445  and  _446
REMARK  186  A    between atoms: _455  and  _457
REMARK  187  A    between atoms: _457  and  _458
REMARK  188  A    between atoms: _457  and  _460
REMARK  189  A    between atoms: _460  and  _461
REMARK  190  A    between atoms: _466  and  _468
REMARK  191  A    between atoms: _468  and  _469
REMARK  192  A    between atoms: _468  and  _471
REMARK  193  A    between atoms: _471  and  _472
REMARK  194  A    between atoms: _478  and  _480
REMARK  195  A    between atoms: _480  and  _481
REMARK  196  A    between atoms: _480  and  _483
REMARK  197  A    between atoms: _483  and  _484
REMARK  198  A    between atoms: _487  and  _489
REMARK  199  A    between atoms: _489  and  _490
REMARK  200  A    between atoms: _489  and  _492
REMARK  201  A    between atoms: _492  and  _493
REMARK  202  A    between atoms: _499  and  _501
REMARK  203  A    between atoms: _501  and  _502
REMARK  204  A    between atoms: _504  and  _506
REMARK  205  A    between atoms: _506  and  _507
REMARK  206  A    between atoms: _509  and  _511
REMARK  207  A    between atoms: _511  and  _512
REMARK  208  A    between atoms: _511  and  _514
REMARK  209  A    between atoms: _514  and  _515
REMARK  210  A    between atoms: _520  and  _521
REMARK  211  A    between atoms: _523  and  _525
REMARK  212  A    between atoms: _525  and  _526
REMARK  213  A    between atoms: _525  and  _528
REMARK  214  A    between atoms: _528  and  _529
REMARK  215  A    between atoms: _534  and  _535
REMARK  216  A    between atoms: _537  and  _539
REMARK  217  A    between atoms: _539  and  _540
REMARK  218  A    between atoms: _539  and  _542
REMARK  219  A    between atoms: _542  and  _543
REMARK  220  A    between atoms: _546  and  _548
REMARK  221  A    between atoms: _548  and  _549
REMARK  222  A    between atoms: _548  and  _551
REMARK  223  A    between atoms: _551  and  _552
REMARK  224  A    between atoms: _555  and  _557
REMARK  225  A    between atoms: _557  and  _558
REMARK  226  A    between atoms: _557  and  _560
REMARK  227  A    between atoms: _560  and  _561
REMARK  228  A    between atoms: _561  and  _562
REMARK  229  A    between atoms: _562  and  _563
REMARK  230  A    between atoms: _563  and  _564
REMARK  231  A    between atoms: _568  and  _570
REMARK  232  A    between atoms: _570  and  _571
REMARK  233  A    between atoms: _570  and  _573
REMARK  234  A    between atoms: _573  and  _574
REMARK  235  A    between atoms: _577  and  _579
REMARK  236  A    between atoms: _579  and  _580
REMARK  237  A    between atoms: _579  and  _582
REMARK  238  A    between atoms: _582  and  _583
REMARK  239  A    between atoms: _586  and  _588
REMARK  240  A    between atoms: _588  and  _589
REMARK  241  A    between atoms: _588  and  _591
REMARK  242  A    between atoms: _591  and  _592
REMARK  243  A    between atoms: _597  and  _598
REMARK  244  A    between atoms: _600  and  _602
REMARK  245  A    between atoms: _602  and  _603
REMARK  246  A    between atoms: _602  and  _605
REMARK  247  A    between atoms: _605  and  _606
REMARK                            x       y       z     vdW  Elec       q    Type
REMARK                         _______ _______ _______ _____ _____    ______ ____
ROOT
ATOM      1  CB  ASN A   1      24.661 -24.483 -11.528  0.00  0.00    +0.110 C 
ENDROOT
BRANCH   1   2
ATOM      2  CG  ASN A   1      25.034 -25.224 -10.263  0.00  0.00    +0.221 C 
ATOM      3  OD1 ASN A   1      24.262 -25.262  -9.303  0.00  0.00    -0.275 OA
ATOM      4  ND2 ASN A   1      26.214 -25.834 -10.260  0.00  0.00    -0.329 N 
ATOM      5 HD21 ASN A   1      26.519 -26.372  -9.424  0.00  0.00    +0.145 HD
ATOM      6 HD22 ASN A   1      26.832 -25.774 -11.094  0.00  0.00    +0.145 HD
ENDBRANCH   1   2
BRANCH   1   7
ATOM      7  CA  ASN A   1      24.361 -25.425 -12.692  0.00  0.00    +0.142 C 
BRANCH   7   8
ATOM      8  N   ASN A   1      25.585 -26.019 -13.199  0.00  0.00    -0.239 NA
ATOM      9  H   ASN A   1      26.485 -25.507 -13.103  0.00  0.00    +0.142 HD
ENDBRANCH   7   8
BRANCH   7  10
ATOM     10  C   ASN A   1      23.723 -24.667 -13.832  0.00  0.00    +0.225 C 
ATOM     11  O   ASN A   1      24.348 -23.782 -14.414  0.00  0.00    -0.287 OA
ENDBRANCH   7  10
ENDBRANCH   1   7
TORSDOF 4
REMARK  Name = ../refined-set-2016/4elg/4elg_pocket.pdb
REMARK  247 active torsions:
REMARK  status: ('A' for Active; 'I' for Inactive)
REMARK    1  A    between atoms: _1  and  _3
REMARK    2  A    between atoms: _3  and  _4
REMARK    3  A    between atoms: _3  and  _6
REMARK    4  A    between atoms: _6  and  _7
REMARK    5  A    between atoms: _13  and  _15
REMARK    6  A    between atoms: _15  and  _16
REMARK    7  A    between atoms: _15  and  _18
REMARK    8  A    between atoms: _18  and  _19
REMARK    9  A    between atoms: _19  and  _20
REMARK   10  A    between atoms: _22  and  _24
REMARK   11  A    between atoms: _24  and  _25
REMARK   12  A    between atoms: _24  and  _27
REMARK   13  A    between atoms: _30  and  _32
REMARK   14  A    between atoms: _32  and  _33
REMARK   15  A    between atoms: _36  and  _38
REMARK   16  A    between atoms: _38  and  _39
REMARK   17  A    between atoms: _38  and  _41
REMARK   18  A    between atoms: _41  and  _42
REMARK   19  A    between atoms: _42  and  _43
REMARK   20  A    between atoms: _45  and  _47
REMARK   21  A    between atoms: _47  and  _48
REMARK   22  A    between atoms: _47  and  _50
REMARK   23  A    between atoms: _50  and  _51
REMARK   24  A    between atoms: _54  and  _56
REMARK   25  A    between atoms: _56  and  _57
REMARK   26  A    between atoms: _59  and  _61
REMARK   27  A    between atoms: _61  and  _62
REMARK   28  A    between atoms: _61  and  _64
REMARK   29  A    between atoms: _64  and  _65
REMARK   30  A    between atoms: _65  and  _66
REMARK   31  A    between atoms: _66  and  _67
REMARK   32  A    between atoms: _67  and  _68
REMARK   33  A    between atoms: _72  and  _74
REMARK   34  A    between atoms: _74  and  _75
REMARK   35  A    between atoms: _74  and  _77
REMARK   36  A    between atoms: _77  and  _78
REMARK   37  A    between atoms: _81  and  _83
REMARK   38  A    between atoms: _83  and  _84
REMARK   39  A    between atoms: _83  and  _86
REMARK   40  A    between atoms: _86  and  _87
REMARK   41  A    between atoms: _92  and  _94
REMARK   42  A    between atoms: _94  and  _95
REMARK   43  A    between atoms: _94  and  _97
REMARK   44  A    between atoms: _97  and  _98
REMARK   45  A    between atoms: _103  and  _105
REMARK   46  A    between atoms: _105  and  _106
REMARK   47  A    between atoms: _105  and  _108
REMARK   48  A    between atoms: _108  and  _109
REMARK   49  A    between atoms: _113  and  _114
REMARK   50  A    between atoms: _119  and  _121
REMARK   51  A    between atoms: _121  and  _122
REMARK   52  A    between atoms: _121  and  _124
REMARK   53  A    between atoms: _124  and  _125
REMARK   54  A    between atoms: _135  and  _137
REMARK   55  A    between atoms: _137  and  _138
REMARK   56  A    between atoms: _137  and  _140
REMARK   57  A    between atoms: _140  and  _141
REMARK   58  A    between atoms: _141  and  _142
REMARK   59  A    between atoms: _142  and  _143
REMARK   60  A    between atoms: _152  and  _154
REMARK   61  A    between atoms: _154  and  _155
REMARK   62  A    between atoms: _154  and  _157
REMARK   63  A    between atoms: _157  and  _158
REMARK   64  A    between atoms: _162  and  _163
REMARK   65  A    between atoms: _168  and  _170
REMARK   66  A    between atoms: _170  and  _171
REMARK   67  A    between atoms: _170  and  _173
REMARK   68  A    between atoms: _173  and  _174
REMARK   69  A    between atoms: _176  and  _178
REMARK   70  A    between atoms: _178  and  _179
REMARK   71  A    between atoms: _178  and  _181
REMARK   72  A    between atoms: _181  and  _182
REMARK   73  A    between atoms: _182  and  _183
REMARK   74  A    between atoms: _186  and  _188
REMARK   75  A    between atoms: _188  and  _189
REMARK   76  A    between atoms: _188  and  _191
REMARK   77  A    between atoms: _191  and  _192
REMARK   78  A    between atoms: _195  and  _197
REMARK   79  A    between atoms: _197  and  _198
REMARK   80  A    between atoms: _197  and  _200
REMARK   81  A    between atoms: _200  and  _201
REMARK   82  A    between atoms: _201  and  _202
REMARK   83  A    between atoms: _207  and  _209
REMARK   84  A    between atoms: _209  and  _210
REMARK   85  A    between atoms: _209  and  _212
REMARK   86  A    between atoms: _212  and  _213
REMARK   87  A    between atoms: _218  and  _219
REMARK   88  A    between atoms: _221  and  _223
REMARK   89  A    between atoms: _223  and  _224
REMARK   90  A    between atoms: _223  and  _226
REMARK   91  A    between atoms: _229  and  _231
REMARK   92  A    between atoms: _231  and  _232
REMARK   93  A    between atoms: _231  and  _234
REMARK   94  A    between atoms: _234  and  _235
REMARK   95  A    between atoms: _235  and  _236
REMARK   96  A    between atoms: _236  and  _237
REMARK   97  A    between atoms: _237  and  _238
REMARK   98  A    between atoms: _242  and  _244
REMARK   99  A    between atoms: _244  and  _245
REMARK  100  A    between atoms: _244  and  _247
REMARK  101  A    between atoms: _247  and  _248
REMARK  102  A    between atoms: _248  and  _249
REMARK  103  A    between atoms: _249  and  _250
REMARK  104  A    between atoms: _250  and  _251
REMARK  105  A    between atoms: _255  and  _257
REMARK  106  A    between atoms: _257  and  _258
REMARK  107  A    between atoms: _257  and  _260
REMARK  108  A    between atoms: _260  and  _261
REMARK  109  A    between atoms: _264  and  _266
REMARK  110  A    between atoms: _266  and  _267
REMARK  111  A    between atoms: _266  and  _269
REMARK  112  A    between atoms: _269  and  _270
REMARK  113  A    between atoms: _273  and  _275
REMARK  114  A    between atoms: _275  and  _276
REMARK  115  A    between atoms: _275  and  _278
REMARK  116  A    between atoms: _278  and  _279
REMARK  117  A    between atoms: _279  and  _280
REMARK  118  A    between atoms: _282  and  _284
REMARK  119  A    between atoms: _284  and  _285
REMARK  120  A    between atoms: _287  and  _289
REMARK  121  A    between atoms: _289  and  _290
REMARK  122  A    between atoms: _289  and  _292
REMARK  123  A    between atoms: _292  and  _293
REMARK  124  A    between atoms: _298  and  _300
REMARK  125  A    between atoms: _300  and  _301
REMARK  126  A    between atoms: _300  and  _303
REMARK  127  A    between atoms: _303  and  _304
REMARK  128  A    between atoms: _307  and  _309
REMARK  129  A    between atoms: _309  and  _310
REMARK  130  A    between atoms: _309  and  _312
REMARK  131  A    between atoms: _312  and  _313
REMARK  132  A    between atoms: _316  and  _318
REMARK  133  A    between atoms: _318  and  _319
REMARK  134  A    between atoms: _318  and  _321
REMARK  135  A    between atoms: _321  and  _322
REMARK  136  A    between atoms: _322  and  _323
REMARK  137  A    between atoms: _325  and  _327
REMARK  138  A    between atoms: _327  and  _328
REMARK  139  A    between atoms: _327  and  _330
REMARK  140  A    between atoms: _330  and  _331
REMARK  141  A    between atoms: _331  and  _332
REMARK  142  A    between atoms: _332  and  _333
REMARK  143  A    between atoms: _333  and  _334
REMARK  144  A    between atoms: _338  and  _340
REMARK  145  A    between atoms: _340  and  _341
REMARK  146  A    between atoms: _340  and  _343
REMARK  147  A    between atoms: _343  and  _344
REMARK  148  A    between atoms: _349  and  _351
REMARK  149  A    between atoms: _351  and  _352
REMARK  150  A    between atoms: _351  and  _354
REMARK  151  A    between atoms: _354  and  _355
REMARK  152  A    between atoms: _360  and  _361
REMARK  153  A    between atoms: _363  and  _365
REMARK  154  A    between atoms: _365  and  _366
REMARK  155  A    between atoms: _365  and  _368
REMARK  156  A    between atoms: _368  and  _369
REMARK  157  A    between atoms: _369  and  _370
REMARK  158  A    between atoms: _373  and  _375
REMARK  159  A    between atoms: _375  and  _376
REMARK  160  A    between atoms: _379  and  _381
REMARK  161  A    between atoms: _381  and  _382
REMARK  162  A    between atoms: _381  and  _384
REMARK  163  A    between atoms: _384  and  _385
REMARK  164  A    between atoms: _388  and  _390
REMARK  165  A    between atoms: _390  and  _391
REMARK  166  A    between atoms: _393  and  _395
REMARK  167  A    between atoms: _395  and  _396
REMARK  168  A    between atoms: _395  and  _398
REMARK  169  A    between atoms: _398  and  _399
REMARK  170  A    between atoms: _399  and  _400
REMARK  171  A    between atoms: _400  and  _401
REMARK  172  A    between atoms: _411  and  _412
REMARK  173  A    between atoms: _417  and  _419
REMARK  174  A    between atoms: _419  and  _420
REMARK  175  A    between atoms: _419  and  _422
REMARK  176  A    between atoms: _422  and  _423
REMARK  177  A    between atoms: _427  and  _428
REMARK  178  A    between atoms: _433  and  _435
REMARK  179  A    between atoms: _435  and  _436
REMARK  180  A    between atoms: _438  and  _440
REMARK  181  A    between atoms: _440  and  _441
REMARK  182  A    between atoms: _440  and  _443
REMARK  183  A    between atoms: _443  and  _444
REMARK  184  A    between atoms: _444  and  _445
REMARK  185  A    between atoms: _445  and  _446
REMARK  186  A    between atoms: _455  and  _457
REMARK  187  A    between atoms: _457  and  _458
REMARK  188  A    between atoms: _457  and  _460
REMARK  189  A    between atoms: _460  and  _461
REMARK  190  A    between atoms: _466  and  _468
REMARK  191  A    between atoms: _468  and  _469
REMARK  192  A    between atoms: _468  and  _471
REMARK  193  A    between atoms: _471  and  _472
REMARK  194  A    between atoms: _478  and  _480
REMARK  195  A    between atoms: _480  and  _481
REMARK  196  A    between atoms: _480  and  _483
REMARK  197  A    between atoms: _483  and  _484
REMARK  198  A    between atoms: _487  and  _489
REMARK  199  A    between atoms: _489  and  _490
REMARK  200  A    between atoms: _489  and  _492
REMARK  201  A    between atoms: _492  and  _493
REMARK  202  A    between atoms: _499  and  _501
REMARK  203  A    between atoms: _501  and  _502
REMARK  204  A    between atoms: _504  and  _506
REMARK  205  A    between atoms: _506  and  _507
REMARK  206  A    between atoms: _509  and  _511
REMARK  207  A    between atoms: _511  and  _512
REMARK  208  A    between atoms: _511  and  _514
REMARK  209  A    between atoms: _514  and  _515
REMARK  210  A    between atoms: _520  and  _521
REMARK  211  A    between atoms: _523  and  _525
REMARK  212  A    between atoms: _525  and  _526
REMARK  213  A    between atoms: _525  and  _528
REMARK  214  A    between atoms: _528  and  _529
REMARK  215  A    between atoms: _534  and  _535
REMARK  216  A    between atoms: _537  and  _539
REMARK  217  A    between atoms: _539  and  _540
REMARK  218  A    between atoms: _539  and  _542
REMARK  219  A    between atoms: _542  and  _543
REMARK  220  A    between atoms: _546  and  _548
REMARK  221  A    between atoms: _548  and  _549
REMARK  222  A    between atoms: _548  and  _551
REMARK  223  A    between atoms: _551  and  _552
REMARK  224  A    between atoms: _555  and  _557
REMARK  225  A    between atoms: _557  and  _558
REMARK  226  A    between atoms: _557  and  _560
REMARK  227  A    between atoms: _560  and  _561
REMARK  228  A    between atoms: _561  and  _562
REMARK  229  A    between atoms: _562  and  _563
REMARK  230  A    between atoms: _563  and  _564
REMARK  231  A    between atoms: _568  and  _570
REMARK  232  A    between atoms: _570  and  _571
REMARK  233  A    between atoms: _570  and  _573
REMARK  234  A    between atoms: _573  and  _574
REMARK  235  A    between atoms: _577  and  _579
REMARK  236  A    between atoms: _579  and  _580
REMARK  237  A    between atoms: _579  and  _582
REMARK  238  A    between atoms: _582  and  _583
REMARK  239  A    between atoms: _586  and  _588
REMARK  240  A    between atoms: _588  and  _589
REMARK  241  A    between atoms: _588  and  _591
REMARK  242  A    between atoms: _591  and  _592
REMARK  243  A    between atoms: _597  and  _598
REMARK  244  A    between atoms: _600  and  _602
REMARK  245  A    between atoms: _602  and  _603
REMARK  246  A    between atoms: _602  and  _605
REMARK  247  A    between atoms: _605  and  _606
REMARK                            x       y       z     vdW  Elec       q    Type
REMARK                         _______ _______ _______ _____ _____    ______ ____
ROOT
ATOM      1  C   ILE A   2      15.528 -31.525 -11.850  0.00  0.00    +0.241 C 
ATOM      2  O   ILE A   2      15.065 -32.473 -11.187  0.00  0.00    -0.273 OA
ATOM      3  N   PHE A   3      15.949 -30.376 -11.321  0.00  0.00    -0.297 N 
ATOM      4  H   PHE A   3      16.143 -29.578 -11.959  0.00  0.00    +0.150 HD
ENDROOT
BRANCH   3   5
ATOM      5  CA  PHE A   3      16.150 -30.186  -9.888  0.00  0.00    +0.153 C 
BRANCH   5   6
ATOM      6  C   PHE A   3      14.990 -29.481  -9.236  0.00  0.00    +0.241 C 
ATOM      7  O   PHE A   3      14.929 -29.299  -8.006  0.00  0.00    -0.273 OA
ATOM      8  N   GLY A   4      14.060 -29.060 -10.070  0.00  0.00    -0.295 N 
ATOM      9  H   GLY A   4      14.205 -29.110 -11.099  0.00  0.00    +0.150 HD
BRANCH   8  10
ATOM     10  CA  GLY A   4      12.846 -28.533  -9.527  0.00  0.00    +0.176 C 
BRANCH  10  11
ATOM     11  C   GLY A   4      12.638 -27.061  -9.719  0.00  0.00    +0.243 C 
ATOM     12  N   GLY A   5      11.617 -26.632  -8.997  0.00  0.00    -0.296 N 
ATOM     13  H   GLY A   5      11.516 -26.977  -8.021  0.00  0.00    +0.150 HD
ATOM     14  O   GLY A   4      13.418 -26.343 -10.380  0.00  0.00    -0.273 OA
BRANCH  12  15
ATOM     15  CA  GLY A   5      10.651 -25.717  -9.503  0.00  0.00    +0.163 C 
BRANCH  15  16
ATOM     16  C   GLY A   5       9.606 -26.712  -9.971  0.00  0.00    +0.229 C 
ATOM     17  O   GLY A   5       9.856 -27.463 -10.915  0.00  0.00    -0.286 OA
ENDBRANCH  15  16
ENDBRANCH  12  15
ENDBRANCH  10  11
ENDBRANCH   8  10
ENDBRANCH   5   6
BRANCH   5  18
ATOM     18  CB  PHE A   3      17.429 -29.398  -9.644  0.00  0.00    +0.055 C 
BRANCH  18  19
ATOM     19  CG  PHE A   3      18.064 -29.708  -8.335  0.00  0.00    -0.020 A 
ATOM     20  CD2 PHE A   3      18.523 -28.695  -7.508  0.00  0.00    -0.004 A 
ATOM     21  CE2 PHE A   3      19.111 -28.998  -6.278  0.00  0.00    -0.000 A 
ATOM     22  CZ  PHE A   3      19.234 -30.329  -5.871  0.00  0.00    -0.000 A 
ATOM     23  CE1 PHE A   3      18.774 -31.340  -6.686  0.00  0.00    -0.000 A 
ATOM     24  CD1 PHE A   3      18.194 -31.029  -7.918  0.00  0.00    -0.004 A 
ENDBRANCH  18  19
ENDBRANCH   5  18
ENDBRANCH   3   5
BRANCH   1  25
ATOM     25  CA  ILE A   2      15.691 -31.625 -13.369  0.00  0.00    +0.148 C 
BRANCH  25  28
ATOM     26  C   PHE A   1      17.938 -32.458 -13.405  0.00  0.00    +0.239 C 
ATOM     27  O   PHE A   1      18.406 -31.329 -13.208  0.00  0.00    -0.274 OA
ATOM     28  N   ILE A   2      16.646 -32.684 -13.571  0.00  0.00    -0.297 N 
ATOM     29  H   ILE A   2      16.318 -33.631 -13.849  0.00  0.00    +0.150 HD
BRANCH  26  30
ATOM     30  CA  PHE A   1      18.820 -33.685 -13.537  0.00  0.00    +0.149 C 
BRANCH  30  31
ATOM     31  N   PHE A   1      19.758 -33.561 -14.654  0.00  0.00    -0.238 NA
ATOM     32  H   PHE A   1      20.503 -32.836 -14.635  0.00  0.00    +0.142 HD
ENDBRANCH  30  31
BRANCH  30  33
ATOM     33  CB  PHE A   1      19.559 -33.999 -12.228  0.00  0.00    +0.053 C 
BRANCH  33  34
ATOM     34  CG  PHE A   1      20.132 -35.392 -12.184  0.00  0.00    -0.020 A 
ATOM     35  CD2 PHE A   1      19.408 -36.441 -11.623  0.00  0.00    -0.004 A 
ATOM     36  CE2 PHE A   1      19.931 -37.732 -11.592  0.00  0.00    -0.000 A 
ATOM     37  CZ  PHE A   1      21.183 -37.984 -12.144  0.00  0.00    -0.000 A 
ATOM     38  CE1 PHE A   1      21.907 -36.947 -12.714  0.00  0.00    -0.000 A 
ATOM     39  CD1 PHE A   1      21.381 -35.659 -12.732  0.00  0.00    -0.004 A 
ENDBRANCH  33  34
ENDBRANCH  30  33
ENDBRANCH  26  30
ENDBRANCH  25  28
BRANCH  25  40
ATOM     40  CB  ILE A   2      14.379 -31.918 -14.075  0.00  0.00    +0.027 C 
ATOM     41  CG2 ILE A   2      13.455 -30.703 -14.005  0.00  0.00    +0.002 C 
BRANCH  40  42
ATOM     42  CG1 ILE A   2      14.663 -32.348 -15.533  0.00  0.00    +0.002 C 
ATOM     43  CD1 ILE A   2      15.560 -31.400 -16.316  0.00  0.00    +0.000 C 
ENDBRANCH  40  42
ENDBRANCH  25  40
ENDBRANCH   1  25
TORSDOF 16
REMARK  Name = ../refined-set-2016/4elg/4elg_pocket.pdb
REMARK  247 active torsions:
REMARK  status: ('A' for Active; 'I' for Inactive)
REMARK    1  A    between atoms: _1  and  _3
REMARK    2  A    between atoms: _3  and  _4
REMARK    3  A    between atoms: _3  and  _6
REMARK    4  A    between atoms: _6  and  _7
REMARK    5  A    between atoms: _13  and  _15
REMARK    6  A    between atoms: _15  and  _16
REMARK    7  A    between atoms: _15  and  _18
REMARK    8  A    between atoms: _18  and  _19
REMARK    9  A    between atoms: _19  and  _20
REMARK   10  A    between atoms: _22  and  _24
REMARK   11  A    between atoms: _24  and  _25
REMARK   12  A    between atoms: _24  and  _27
REMARK   13  A    between atoms: _30  and  _32
REMARK   14  A    between atoms: _32  and  _33
REMARK   15  A    between atoms: _36  and  _38
REMARK   16  A    between atoms: _38  and  _39
REMARK   17  A    between atoms: _38  and  _41
REMARK   18  A    between atoms: _41  and  _42
REMARK   19  A    between atoms: _42  and  _43
REMARK   20  A    between atoms: _45  and  _47
REMARK   21  A    between atoms: _47  and  _48
REMARK   22  A    between atoms: _47  and  _50
REMARK   23  A    between atoms: _50  and  _51
REMARK   24  A    between atoms: _54  and  _56
REMARK   25  A    between atoms: _56  and  _57
REMARK   26  A    between atoms: _59  and  _61
REMARK   27  A    between atoms: _61  and  _62
REMARK   28  A    between atoms: _61  and  _64
REMARK   29  A    between atoms: _64  and  _65
REMARK   30  A    between atoms: _65  and  _66
REMARK   31  A    between atoms: _66  and  _67
REMARK   32  A    between atoms: _67  and  _68
REMARK   33  A    between atoms: _72  and  _74
REMARK   34  A    between atoms: _74  and  _75
REMARK   35  A    between atoms: _74  and  _77
REMARK   36  A    between atoms: _77  and  _78
REMARK   37  A    between atoms: _81  and  _83
REMARK   38  A    between atoms: _83  and  _84
REMARK   39  A    between atoms: _83  and  _86
REMARK   40  A    between atoms: _86  and  _87
REMARK   41  A    between atoms: _92  and  _94
REMARK   42  A    between atoms: _94  and  _95
REMARK   43  A    between atoms: _94  and  _97
REMARK   44  A    between atoms: _97  and  _98
REMARK   45  A    between atoms: _103  and  _105
REMARK   46  A    between atoms: _105  and  _106
REMARK   47  A    between atoms: _105  and  _108
REMARK   48  A    between atoms: _108  and  _109
REMARK   49  A    between atoms: _113  and  _114
REMARK   50  A    between atoms: _119  and  _121
REMARK   51  A    between atoms: _121  and  _122
REMARK   52  A    between atoms: _121  and  _124
REMARK   53  A    between atoms: _124  and  _125
REMARK   54  A    between atoms: _135  and  _137
REMARK   55  A    between atoms: _137  and  _138
REMARK   56  A    between atoms: _137  and  _140
REMARK   57  A    between atoms: _140  and  _141
REMARK   58  A    between atoms: _141  and  _142
REMARK   59  A    between atoms: _142  and  _143
REMARK   60  A    between atoms: _152  and  _154
REMARK   61  A    between atoms: _154  and  _155
REMARK   62  A    between atoms: _154  and  _157
REMARK   63  A    between atoms: _157  and  _158
REMARK   64  A    between atoms: _162  and  _163
REMARK   65  A    between atoms: _168  and  _170
REMARK   66  A    between atoms: _170  and  _171
REMARK   67  A    between atoms: _170  and  _173
REMARK   68  A    between atoms: _173  and  _174
REMARK   69  A    between atoms: _176  and  _178
REMARK   70  A    between atoms: _178  and  _179
REMARK   71  A    between atoms: _178  and  _181
REMARK   72  A    between atoms: _181  and  _182
REMARK   73  A    between atoms: _182  and  _183
REMARK   74  A    between atoms: _186  and  _188
REMARK   75  A    between atoms: _188  and  _189
REMARK   76  A    between atoms: _188  and  _191
REMARK   77  A    between atoms: _191  and  _192
REMARK   78  A    between atoms: _195  and  _197
REMARK   79  A    between atoms: _197  and  _198
REMARK   80  A    between atoms: _197  and  _200
REMARK   81  A    between atoms: _200  and  _201
REMARK   82  A    between atoms: _201  and  _202
REMARK   83  A    between atoms: _207  and  _209
REMARK   84  A    between atoms: _209  and  _210
REMARK   85  A    between atoms: _209  and  _212
REMARK   86  A    between atoms: _212  and  _213
REMARK   87  A    between atoms: _218  and  _219
REMARK   88  A    between atoms: _221  and  _223
REMARK   89  A    between atoms: _223  and  _224
REMARK   90  A    between atoms: _223  and  _226
REMARK   91  A    between atoms: _229  and  _231
REMARK   92  A    between atoms: _231  and  _232
REMARK   93  A    between atoms: _231  and  _234
REMARK   94  A    between atoms: _234  and  _235
REMARK   95  A    between atoms: _235  and  _236
REMARK   96  A    between atoms: _236  and  _237
REMARK   97  A    between atoms: _237  and  _238
REMARK   98  A    between atoms: _242  and  _244
REMARK   99  A    between atoms: _244  and  _245
REMARK  100  A    between atoms: _244  and  _247
REMARK  101  A    between atoms: _247  and  _248
REMARK  102  A    between atoms: _248  and  _249
REMARK  103  A    between atoms: _249  and  _250
REMARK  104  A    between atoms: _250  and  _251
REMARK  105  A    between atoms: _255  and  _257
REMARK  106  A    between atoms: _257  and  _258
REMARK  107  A    between atoms: _257  and  _260
REMARK  108  A    between atoms: _260  and  _261
REMARK  109  A    between atoms: _264  and  _266
REMARK  110  A    between atoms: _266  and  _267
REMARK  111  A    between atoms: _266  and  _269
REMARK  112  A    between atoms: _269  and  _270
REMARK  113  A    between atoms: _273  and  _275
REMARK  114  A    between atoms: _275  and  _276
REMARK  115  A    between atoms: _275  and  _278
REMARK  116  A    between atoms: _278  and  _279
REMARK  117  A    between atoms: _279  and  _280
REMARK  118  A    between atoms: _282  and  _284
REMARK  119  A    between atoms: _284  and  _285
REMARK  120  A    between atoms: _287  and  _289
REMARK  121  A    between atoms: _289  and  _290
REMARK  122  A    between atoms: _289  and  _292
REMARK  123  A    between atoms: _292  and  _293
REMARK  124  A    between atoms: _298  and  _300
REMARK  125  A    between atoms: _300  and  _301
REMARK  126  A    between atoms: _300  and  _303
REMARK  127  A    between atoms: _303  and  _304
REMARK  128  A    between atoms: _307  and  _309
REMARK  129  A    between atoms: _309  and  _310
REMARK  130  A    between atoms: _309  and  _312
REMARK  131  A    between atoms: _312  and  _313
REMARK  132  A    between atoms: _316  and  _318
REMARK  133  A    between atoms: _318  and  _319
REMARK  134  A    between atoms: _318  and  _321
REMARK  135  A    between atoms: _321  and  _322
REMARK  136  A    between atoms: _322  and  _323
REMARK  137  A    between atoms: _325  and  _327
REMARK  138  A    between atoms: _327  and  _328
REMARK  139  A    between atoms: _327  and  _330
REMARK  140  A    between atoms: _330  and  _331
REMARK  141  A    between atoms: _331  and  _332
REMARK  142  A    between atoms: _332  and  _333
REMARK  143  A    between atoms: _333  and  _334
REMARK  144  A    between atoms: _338  and  _340
REMARK  145  A    between atoms: _340  and  _341
REMARK  146  A    between atoms: _340  and  _343
REMARK  147  A    between atoms: _343  and  _344
REMARK  148  A    between atoms: _349  and  _351
REMARK  149  A    between atoms: _351  and  _352
REMARK  150  A    between atoms: _351  and  _354
REMARK  151  A    between atoms: _354  and  _355
REMARK  152  A    between atoms: _360  and  _361
REMARK  153  A    between atoms: _363  and  _365
REMARK  154  A    between atoms: _365  and  _366
REMARK  155  A    between atoms: _365  and  _368
REMARK  156  A    between atoms: _368  and  _369
REMARK  157  A    between atoms: _369  and  _370
REMARK  158  A    between atoms: _373  and  _375
REMARK  159  A    between atoms: _375  and  _376
REMARK  160  A    between atoms: _379  and  _381
REMARK  161  A    between atoms: _381  and  _382
REMARK  162  A    between atoms: _381  and  _384
REMARK  163  A    between atoms: _384  and  _385
REMARK  164  A    between atoms: _388  and  _390
REMARK  165  A    between atoms: _390  and  _391
REMARK  166  A    between atoms: _393  and  _395
REMARK  167  A    between atoms: _395  and  _396
REMARK  168  A    between atoms: _395  and  _398
REMARK  169  A    between atoms: _398  and  _399
REMARK  170  A    between atoms: _399  and  _400
REMARK  171  A    between atoms: _400  and  _401
REMARK  172  A    between atoms: _411  and  _412
REMARK  173  A    between atoms: _417  and  _419
REMARK  174  A    between atoms: _419  and  _420
REMARK  175  A    between atoms: _419  and  _422
REMARK  176  A    between atoms: _422  and  _423
REMARK  177  A    between atoms: _427  and  _428
REMARK  178  A    between atoms: _433  and  _435
REMARK  179  A    between atoms: _435  and  _436
REMARK  180  A    between atoms: _438  and  _440
REMARK  181  A    between atoms: _440  and  _441
REMARK  182  A    between atoms: _440  and  _443
REMARK  183  A    between atoms: _443  and  _444
REMARK  184  A    between atoms: _444  and  _445
REMARK  185  A    between atoms: _445  and  _446
REMARK  186  A    between atoms: _455  and  _457
REMARK  187  A    between atoms: _457  and  _458
REMARK  188  A    between atoms: _457  and  _460
REMARK  189  A    between atoms: _460  and  _461
REMARK  190  A    between atoms: _466  and  _468
REMARK  191  A    between atoms: _468  and  _469
REMARK  192  A    between atoms: _468  and  _471
REMARK  193  A    between atoms: _471  and  _472
REMARK  194  A    between atoms: _478  and  _480
REMARK  195  A    between atoms: _480  and  _481
REMARK  196  A    between atoms: _480  and  _483
REMARK  197  A    between atoms: _483  and  _484
REMARK  198  A    between atoms: _487  and  _489
REMARK  199  A    between atoms: _489  and  _490
REMARK  200  A    between atoms: _489  and  _492
REMARK  201  A    between atoms: _492  and  _493
REMARK  202  A    between atoms: _499  and  _501
REMARK  203  A    between atoms: _501  and  _502
REMARK  204  A    between atoms: _504  and  _506
REMARK  205  A    between atoms: _506  and  _507
REMARK  206  A    between atoms: _509  and  _511
REMARK  207  A    between atoms: _511  and  _512
REMARK  208  A    between atoms: _511  and  _514
REMARK  209  A    between atoms: _514  and  _515
REMARK  210  A    between atoms: _520  and  _521
REMARK  211  A    between atoms: _523  and  _525
REMARK  212  A    between atoms: _525  and  _526
REMARK  213  A    between atoms: _525  and  _528
REMARK  214  A    between atoms: _528  and  _529
REMARK  215  A    between atoms: _534  and  _535
REMARK  216  A    between atoms: _537  and  _539
REMARK  217  A    between atoms: _539  and  _540
REMARK  218  A    between atoms: _539  and  _542
REMARK  219  A    between atoms: _542  and  _543
REMARK  220  A    between atoms: _546  and  _548
REMARK  221  A    between atoms: _548  and  _549
REMARK  222  A    between atoms: _548  and  _551
REMARK  223  A    between atoms: _551  and  _552
REMARK  224  A    between atoms: _555  and  _557
REMARK  225  A    between atoms: _557  and  _558
REMARK  226  A    between atoms: _557  and  _560
REMARK  227  A    between atoms: _560  and  _561
REMARK  228  A    between atoms: _561  and  _562
REMARK  229  A    between atoms: _562  and  _563
REMARK  230  A    between atoms: _563  and  _564
REMARK  231  A    between atoms: _568  and  _570
REMARK  232  A    between atoms: _570  and  _571
REMARK  233  A    between atoms: _570  and  _573
REMARK  234  A    between atoms: _573  and  _574
REMARK  235  A    between atoms: _577  and  _579
REMARK  236  A    between atoms: _579  and  _580
REMARK  237  A    between atoms: _579  and  _582
REMARK  238  A    between atoms: _582  and  _583
REMARK  239  A    between atoms: _586  and  _588
REMARK  240  A    between atoms: _588  and  _589
REMARK  241  A    between atoms: _588  and  _591
REMARK  242  A    between atoms: _591  and  _592
REMARK  243  A    between atoms: _597  and  _598
REMARK  244  A    between atoms: _600  and  _602
REMARK  245  A    between atoms: _602  and  _603
REMARK  246  A    between atoms: _602  and  _605
REMARK  247  A    between atoms: _605  and  _606
REMARK                            x       y       z     vdW  Elec       q    Type
REMARK                         _______ _______ _______ _____ _____    ______ ____
ROOT
ATOM      1  CG  TYR A   1       9.704 -31.119 -11.222  0.00  0.00    -0.020 A 
ATOM      2  CD2 TYR A   1       9.462 -30.722  -9.912  0.00  0.00    -0.001 A 
ATOM      3  CE2 TYR A   1      10.417 -30.921  -8.910  0.00  0.00    +0.036 A 
ATOM      4  CZ  TYR A   1      11.618 -31.506  -9.217  0.00  0.00    +0.134 A 
ATOM      5  CE1 TYR A   1      11.892 -31.901 -10.520  0.00  0.00    +0.036 A 
ATOM      6  CD1 TYR A   1      10.929 -31.705 -11.515  0.00  0.00    -0.001 A 
ENDROOT
BRANCH   4   7
ATOM      7  OH  TYR A   1      12.567 -31.676  -8.231  0.00  0.00    -0.506 OA
ATOM      8  HH  TYR A   1      13.369 -32.110  -8.617  0.00  0.00    +0.292 HD
ENDBRANCH   4   7
BRANCH   1   9
ATOM      9  CB  TYR A   1       8.661 -30.908 -12.307  0.00  0.00    +0.051 C 
BRANCH   9  10
ATOM     10  CA  TYR A   1       9.208 -30.261 -13.571  0.00  0.00    +0.137 C 
BRANCH  10  11
ATOM     11  N   TYR A   1       9.628 -28.875 -13.337  0.00  0.00    -0.239 NA
ATOM     12  H   TYR A   1       9.575 -28.473 -12.379  0.00  0.00    +0.142 HD
ENDBRANCH  10  11
BRANCH  10  13
ATOM     13  C   TYR A   1       8.155 -30.348 -14.693  0.00  0.00    +0.224 C 
ATOM     14  O   TYR A   1       8.222 -31.237 -15.544  0.00  0.00    -0.287 OA
ENDBRANCH  10  13
ENDBRANCH   9  10
ENDBRANCH   1   9
TORSDOF 5
REMARK  Name = ../refined-set-2016/4elg/4elg_pocket.pdb
REMARK  247 active torsions:
REMARK  status: ('A' for Active; 'I' for Inactive)
REMARK    1  A    between atoms: _1  and  _3
REMARK    2  A    between atoms: _3  and  _4
REMARK    3  A    between atoms: _3  and  _6
REMARK    4  A    between atoms: _6  and  _7
REMARK    5  A    between atoms: _13  and  _15
REMARK    6  A    between atoms: _15  and  _16
REMARK    7  A    between atoms: _15  and  _18
REMARK    8  A    between atoms: _18  and  _19
REMARK    9  A    between atoms: _19  and  _20
REMARK   10  A    between atoms: _22  and  _24
REMARK   11  A    between atoms: _24  and  _25
REMARK   12  A    between atoms: _24  and  _27
REMARK   13  A    between atoms: _30  and  _32
REMARK   14  A    between atoms: _32  and  _33
REMARK   15  A    between atoms: _36  and  _38
REMARK   16  A    between atoms: _38  and  _39
REMARK   17  A    between atoms: _38  and  _41
REMARK   18  A    between atoms: _41  and  _42
REMARK   19  A    between atoms: _42  and  _43
REMARK   20  A    between atoms: _45  and  _47
REMARK   21  A    between atoms: _47  and  _48
REMARK   22  A    between atoms: _47  and  _50
REMARK   23  A    between atoms: _50  and  _51
REMARK   24  A    between atoms: _54  and  _56
REMARK   25  A    between atoms: _56  and  _57
REMARK   26  A    between atoms: _59  and  _61
REMARK   27  A    between atoms: _61  and  _62
REMARK   28  A    between atoms: _61  and  _64
REMARK   29  A    between atoms: _64  and  _65
REMARK   30  A    between atoms: _65  and  _66
REMARK   31  A    between atoms: _66  and  _67
REMARK   32  A    between atoms: _67  and  _68
REMARK   33  A    between atoms: _72  and  _74
REMARK   34  A    between atoms: _74  and  _75
REMARK   35  A    between atoms: _74  and  _77
REMARK   36  A    between atoms: _77  and  _78
REMARK   37  A    between atoms: _81  and  _83
REMARK   38  A    between atoms: _83  and  _84
REMARK   39  A    between atoms: _83  and  _86
REMARK   40  A    between atoms: _86  and  _87
REMARK   41  A    between atoms: _92  and  _94
REMARK   42  A    between atoms: _94  and  _95
REMARK   43  A    between atoms: _94  and  _97
REMARK   44  A    between atoms: _97  and  _98
REMARK   45  A    between atoms: _103  and  _105
REMARK   46  A    between atoms: _105  and  _106
REMARK   47  A    between atoms: _105  and  _108
REMARK   48  A    between atoms: _108  and  _109
REMARK   49  A    between atoms: _113  and  _114
REMARK   50  A    between atoms: _119  and  _121
REMARK   51  A    between atoms: _121  and  _122
REMARK   52  A    between atoms: _121  and  _124
REMARK   53  A    between atoms: _124  and  _125
REMARK   54  A    between atoms: _135  and  _137
REMARK   55  A    between atoms: _137  and  _138
REMARK   56  A    between atoms: _137  and  _140
REMARK   57  A    between atoms: _140  and  _141
REMARK   58  A    between atoms: _141  and  _142
REMARK   59  A    between atoms: _142  and  _143
REMARK   60  A    between atoms: _152  and  _154
REMARK   61  A    between atoms: _154  and  _155
REMARK   62  A    between atoms: _154  and  _157
REMARK   63  A    between atoms: _157  and  _158
REMARK   64  A    between atoms: _162  and  _163
REMARK   65  A    between atoms: _168  and  _170
REMARK   66  A    between atoms: _170  and  _171
REMARK   67  A    between atoms: _170  and  _173
REMARK   68  A    between atoms: _173  and  _174
REMARK   69  A    between atoms: _176  and  _178
REMARK   70  A    between atoms: _178  and  _179
REMARK   71  A    between atoms: _178  and  _181
REMARK   72  A    between atoms: _181  and  _182
REMARK   73  A    between atoms: _182  and  _183
REMARK   74  A    between atoms: _186  and  _188
REMARK   75  A    between atoms: _188  and  _189
REMARK   76  A    between atoms: _188  and  _191
REMARK   77  A    between atoms: _191  and  _192
REMARK   78  A    between atoms: _195  and  _197
REMARK   79  A    between atoms: _197  and  _198
REMARK   80  A    between atoms: _197  and  _200
REMARK   81  A    between atoms: _200  and  _201
REMARK   82  A    between atoms: _201  and  _202
REMARK   83  A    between atoms: _207  and  _209
REMARK   84  A    between atoms: _209  and  _210
REMARK   85  A    between atoms: _209  and  _212
REMARK   86  A    between atoms: _212  and  _213
REMARK   87  A    between atoms: _218  and  _219
REMARK   88  A    between atoms: _221  and  _223
REMARK   89  A    between atoms: _223  and  _224
REMARK   90  A    between atoms: _223  and  _226
REMARK   91  A    between atoms: _229  and  _231
REMARK   92  A    between atoms: _231  and  _232
REMARK   93  A    between atoms: _231  and  _234
REMARK   94  A    between atoms: _234  and  _235
REMARK   95  A    between atoms: _235  and  _236
REMARK   96  A    between atoms: _236  and  _237
REMARK   97  A    between atoms: _237  and  _238
REMARK   98  A    between atoms: _242  and  _244
REMARK   99  A    between atoms: _244  and  _245
REMARK  100  A    between atoms: _244  and  _247
REMARK  101  A    between atoms: _247  and  _248
REMARK  102  A    between atoms: _248  and  _249
REMARK  103  A    between atoms: _249  and  _250
REMARK  104  A    between atoms: _250  and  _251
REMARK  105  A    between atoms: _255  and  _257
REMARK  106  A    between atoms: _257  and  _258
REMARK  107  A    between atoms: _257  and  _260
REMARK  108  A    between atoms: _260  and  _261
REMARK  109  A    between atoms: _264  and  _266
REMARK  110  A    between atoms: _266  and  _267
REMARK  111  A    between atoms: _266  and  _269
REMARK  112  A    between atoms: _269  and  _270
REMARK  113  A    between atoms: _273  and  _275
REMARK  114  A    between atoms: _275  and  _276
REMARK  115  A    between atoms: _275  and  _278
REMARK  116  A    between atoms: _278  and  _279
REMARK  117  A    between atoms: _279  and  _280
REMARK  118  A    between atoms: _282  and  _284
REMARK  119  A    between atoms: _284  and  _285
REMARK  120  A    between atoms: _287  and  _289
REMARK  121  A    between atoms: _289  and  _290
REMARK  122  A    between atoms: _289  and  _292
REMARK  123  A    between atoms: _292  and  _293
REMARK  124  A    between atoms: _298  and  _300
REMARK  125  A    between atoms: _300  and  _301
REMARK  126  A    between atoms: _300  and  _303
REMARK  127  A    between atoms: _303  and  _304
REMARK  128  A    between atoms: _307  and  _309
REMARK  129  A    between atoms: _309  and  _310
REMARK  130  A    between atoms: _309  and  _312
REMARK  131  A    between atoms: _312  and  _313
REMARK  132  A    between atoms: _316  and  _318
REMARK  133  A    between atoms: _318  and  _319
REMARK  134  A    between atoms: _318  and  _321
REMARK  135  A    between atoms: _321  and  _322
REMARK  136  A    between atoms: _322  and  _323
REMARK  137  A    between atoms: _325  and  _327
REMARK  138  A    between atoms: _327  and  _328
REMARK  139  A    between atoms: _327  and  _330
REMARK  140  A    between atoms: _330  and  _331
REMARK  141  A    between atoms: _331  and  _332
REMARK  142  A    between atoms: _332  and  _333
REMARK  143  A    between atoms: _333  and  _334
REMARK  144  A    between atoms: _338  and  _340
REMARK  145  A    between atoms: _340  and  _341
REMARK  146  A    between atoms: _340  and  _343
REMARK  147  A    between atoms: _343  and  _344
REMARK  148  A    between atoms: _349  and  _351
REMARK  149  A    between atoms: _351  and  _352
REMARK  150  A    between atoms: _351  and  _354
REMARK  151  A    between atoms: _354  and  _355
REMARK  152  A    between atoms: _360  and  _361
REMARK  153  A    between atoms: _363  and  _365
REMARK  154  A    between atoms: _365  and  _366
REMARK  155  A    between atoms: _365  and  _368
REMARK  156  A    between atoms: _368  and  _369
REMARK  157  A    between atoms: _369  and  _370
REMARK  158  A    between atoms: _373  and  _375
REMARK  159  A    between atoms: _375  and  _376
REMARK  160  A    between atoms: _379  and  _381
REMARK  161  A    between atoms: _381  and  _382
REMARK  162  A    between atoms: _381  and  _384
REMARK  163  A    between atoms: _384  and  _385
REMARK  164  A    between atoms: _388  and  _390
REMARK  165  A    between atoms: _390  and  _391
REMARK  166  A    between atoms: _393  and  _395
REMARK  167  A    between atoms: _395  and  _396
REMARK  168  A    between atoms: _395  and  _398
REMARK  169  A    between atoms: _398  and  _399
REMARK  170  A    between atoms: _399  and  _400
REMARK  171  A    between atoms: _400  and  _401
REMARK  172  A    between atoms: _411  and  _412
REMARK  173  A    between atoms: _417  and  _419
REMARK  174  A    between atoms: _419  and  _420
REMARK  175  A    between atoms: _419  and  _422
REMARK  176  A    between atoms: _422  and  _423
REMARK  177  A    between atoms: _427  and  _428
REMARK  178  A    between atoms: _433  and  _435
REMARK  179  A    between atoms: _435  and  _436
REMARK  180  A    between atoms: _438  and  _440
REMARK  181  A    between atoms: _440  and  _441
REMARK  182  A    between atoms: _440  and  _443
REMARK  183  A    between atoms: _443  and  _444
REMARK  184  A    between atoms: _444  and  _445
REMARK  185  A    between atoms: _445  and  _446
REMARK  186  A    between atoms: _455  and  _457
REMARK  187  A    between atoms: _457  and  _458
REMARK  188  A    between atoms: _457  and  _460
REMARK  189  A    between atoms: _460  and  _461
REMARK  190  A    between atoms: _466  and  _468
REMARK  191  A    between atoms: _468  and  _469
REMARK  192  A    between atoms: _468  and  _471
REMARK  193  A    between atoms: _471  and  _472
REMARK  194  A    between atoms: _478  and  _480
REMARK  195  A    between atoms: _480  and  _481
REMARK  196  A    between atoms: _480  and  _483
REMARK  197  A    between atoms: _483  and  _484
REMARK  198  A    between atoms: _487  and  _489
REMARK  199  A    between atoms: _489  and  _490
REMARK  200  A    between atoms: _489  and  _492
REMARK  201  A    between atoms: _492  and  _493
REMARK  202  A    between atoms: _499  and  _501
REMARK  203  A    between atoms: _501  and  _502
REMARK  204  A    between atoms: _504  and  _506
REMARK  205  A    between atoms: _506  and  _507
REMARK  206  A    between atoms: _509  and  _511
REMARK  207  A    between atoms: _511  and  _512
REMARK  208  A    between atoms: _511  and  _514
REMARK  209  A    between atoms: _514  and  _515
REMARK  210  A    between atoms: _520  and  _521
REMARK  211  A    between atoms: _523  and  _525
REMARK  212  A    between atoms: _525  and  _526
REMARK  213  A    between atoms: _525  and  _528
REMARK  214  A    between atoms: _528  and  _529
REMARK  215  A    between atoms: _534  and  _535
REMARK  216  A    between atoms: _537  and  _539
REMARK  217  A    between atoms: _539  and  _540
REMARK  218  A    between atoms: _539  and  _542
REMARK  219  A    between atoms: _542  and  _543
REMARK  220  A    between atoms: _546  and  _548
REMARK  221  A    between atoms: _548  and  _549
REMARK  222  A    between atoms: _548  and  _551
REMARK  223  A    between atoms: _551  and  _552
REMARK  224  A    between atoms: _555  and  _557
REMARK  225  A    between atoms: _557  and  _558
REMARK  226  A    between atoms: _557  and  _560
REMARK  227  A    between atoms: _560  and  _561
REMARK  228  A    between atoms: _561  and  _562
REMARK  229  A    between atoms: _562  and  _563
REMARK  230  A    between atoms: _563  and  _564
REMARK  231  A    between atoms: _568  and  _570
REMARK  232  A    between atoms: _570  and  _571
REMARK  233  A    between atoms: _570  and  _573
REMARK  234  A    between atoms: _573  and  _574
REMARK  235  A    between atoms: _577  and  _579
REMARK  236  A    between atoms: _579  and  _580
REMARK  237  A    between atoms: _579  and  _582
REMARK  238  A    between atoms: _582  and  _583
REMARK  239  A    between atoms: _586  and  _588
REMARK  240  A    between atoms: _588  and  _589
REMARK  241  A    between atoms: _588  and  _591
REMARK  242  A    between atoms: _591  and  _592
REMARK  243  A    between atoms: _597  and  _598
REMARK  244  A    between atoms: _600  and  _602
REMARK  245  A    between atoms: _602  and  _603
REMARK  246  A    between atoms: _602  and  _605
REMARK  247  A    between atoms: _605  and  _606
REMARK                            x       y       z     vdW  Elec       q    Type
REMARK                         _______ _______ _______ _____ _____    ______ ____
ROOT
ATOM      1  CA  THR A   3      12.945 -39.212  -2.225  0.00  0.00    +0.176 C 
ENDROOT
BRANCH   1   3
ATOM      2  C   ILE A   2      12.516 -39.939  -4.499  0.00  0.00    +0.241 C 
ATOM      3  N   THR A   3      12.796 -38.947  -3.659  0.00  0.00    -0.295 N 
ATOM      4  H   THR A   3      12.910 -37.979  -4.021  0.00  0.00    +0.150 HD
ATOM      5  O   ILE A   2      12.514 -41.135  -4.169  0.00  0.00    -0.273 OA
BRANCH   2   6
ATOM      6  CA  ILE A   2      12.189 -39.544  -5.919  0.00  0.00    +0.148 C 
BRANCH   6   8
ATOM      7  C   TYR A   1      13.974 -39.406  -7.534  0.00  0.00    +0.239 C 
ATOM      8  N   ILE A   2      13.134 -40.161  -6.837  0.00  0.00    -0.297 N 
ATOM      9  H   ILE A   2      13.151 -41.195  -6.947  0.00  0.00    +0.150 HD
ATOM     10  O   TYR A   1      14.055 -38.166  -7.399  0.00  0.00    -0.274 OA
BRANCH   7  11
ATOM     11  CA  TYR A   1      14.804 -40.145  -8.569  0.00  0.00    +0.149 C 
BRANCH  11  12
ATOM     12  N   TYR A   1      14.130 -39.943  -9.840  0.00  0.00    -0.238 NA
ATOM     13  H   TYR A   1      14.208 -39.022 -10.317  0.00  0.00    +0.142 HD
ENDBRANCH  11  12
BRANCH  11  14
ATOM     14  CB  TYR A   1      16.224 -39.583  -8.602  0.00  0.00    +0.053 C 
BRANCH  14  15
ATOM     15  CG  TYR A   1      17.152 -40.237  -9.615  0.00  0.00    -0.020 A 
ATOM     16  CD2 TYR A   1      18.139 -41.135  -9.217  0.00  0.00    -0.001 A 
ATOM     17  CE2 TYR A   1      19.001 -41.721 -10.153  0.00  0.00    +0.036 A 
ATOM     18  CZ  TYR A   1      18.882 -41.402 -11.496  0.00  0.00    +0.134 A 
ATOM     19  CE1 TYR A   1      17.912 -40.509 -11.911  0.00  0.00    +0.036 A 
ATOM     20  CD1 TYR A   1      17.056 -39.932 -10.973  0.00  0.00    -0.001 A 
BRANCH  18  21
ATOM     21  OH  TYR A   1      19.748 -41.973 -12.418  0.00  0.00    -0.506 OA
ATOM     22  HH  TYR A   1      19.528 -41.641 -13.325  0.00  0.00    +0.292 HD
ENDBRANCH  18  21
ENDBRANCH  14  15
ENDBRANCH  11  14
ENDBRANCH   7  11
ENDBRANCH   6   8
BRANCH   6  23
ATOM     23  CB  ILE A   2      10.743 -40.010  -6.178  0.00  0.00    +0.027 C 
ATOM     24  CG2 ILE A   2       9.740 -39.231  -5.289  0.00  0.00    +0.002 C 
BRANCH  23  25
ATOM     25  CG1 ILE A   2      10.396 -39.898  -7.668  0.00  0.00    +0.002 C 
ATOM     26  CD1 ILE A   2       8.895 -39.921  -7.955  0.00  0.00    +0.000 C 
ENDBRANCH  23  25
ENDBRANCH   6  23
ENDBRANCH   2   6
ENDBRANCH   1   3
BRANCH   1  27
ATOM     27  C   THR A   3      11.575 -38.998  -1.588  0.00  0.00    +0.243 C 
ATOM     28  N   LYS A   4      11.057 -40.009  -0.887  0.00  0.00    -0.297 N 
ATOM     29  H   LYS A   4      11.593 -40.894  -0.782  0.00  0.00    +0.150 HD
ATOM     30  O   THR A   3      10.970 -37.931  -1.763  0.00  0.00    -0.273 OA
BRANCH  28  31
ATOM     31  CA  LYS A   4       9.731 -39.877  -0.262  0.00  0.00    +0.149 C 
BRANCH  31  32
ATOM     32  C   LYS A   4       9.835 -39.809   1.268  0.00  0.00    +0.241 C 
ATOM     33  O   LYS A   4      10.229 -40.778   1.923  0.00  0.00    -0.273 OA
ATOM     34  N   ILE A   5       9.452 -38.669   1.828  0.00  0.00    -0.298 N 
ATOM     35  H   ILE A   5       9.061 -37.914   1.229  0.00  0.00    +0.150 HD
BRANCH  34  36
ATOM     36  CA  ILE A   5       9.568 -38.453   3.267  0.00  0.00    +0.137 C 
BRANCH  36  37
ATOM     37  C   ILE A   5       8.249 -38.802   3.955  0.00  0.00    +0.227 C 
ATOM     38  O   ILE A   5       7.181 -38.319   3.547  0.00  0.00    -0.286 OA
ENDBRANCH  36  37
BRANCH  36  39
ATOM     39  CB  ILE A   5       9.997 -37.005   3.530  0.00  0.00    +0.026 C 
ATOM     40  CG2 ILE A   5      10.203 -36.751   5.017  0.00  0.00    +0.002 C 
BRANCH  39  41
ATOM     41  CG1 ILE A   5      11.313 -36.743   2.788  0.00  0.00    +0.002 C 
ATOM     42  CD1 ILE A   5      11.638 -35.307   2.656  0.00  0.00    +0.000 C 
ENDBRANCH  39  41
ENDBRANCH  36  39
ENDBRANCH  34  36
ENDBRANCH  31  32
BRANCH  31  43
ATOM     43  CB  LYS A   4       8.786 -41.013  -0.669  0.00  0.00    +0.029 C 
BRANCH  43  44
ATOM     44  CG  LYS A   4       8.506 -41.129  -2.168  0.00  0.00    +0.000 C 
BRANCH  44  45
ATOM     45  CD  LYS A   4       7.413 -42.167  -2.450  0.00  0.00    -0.024 C 
BRANCH  45  46
ATOM     46  CE  LYS A   4       7.374 -42.526  -3.941  0.00  0.00    -0.086 C 
BRANCH  46  47
ATOM     47  NZ  LYS A   4       6.247 -43.426  -4.328  0.00  0.00    +0.380 N 
ATOM     48  HZ1 LYS A   4       6.322 -44.320  -3.801  0.00  0.00    -0.089 HD
ATOM     49  HZ2 LYS A   4       5.343 -42.964  -4.102  0.00  0.00    -0.089 HD
ATOM     50  HZ3 LYS A   4       6.294 -43.619  -5.349  0.00  0.00    -0.089 HD
ENDBRANCH  46  47
ENDBRANCH  45  46
ENDBRANCH  44  45
ENDBRANCH  43  44
ENDBRANCH  31  43
ENDBRANCH  28  31
ENDBRANCH   1  27
BRANCH   1  51
ATOM     51  CB  THR A   3      13.981 -38.285  -1.564  0.00  0.00    +0.137 C 
ATOM     52  CG2 THR A   3      14.066 -38.572  -0.044  0.00  0.00    +0.034 C 
BRANCH  51  53
ATOM     53  OG1 THR A   3      15.274 -38.476  -2.167  0.00  0.00    -0.382 OA
ATOM     54  HG1 THR A   3      15.931 -37.875  -1.734  0.00  0.00    +0.210 HD
ENDBRANCH  51  53
ENDBRANCH   1  51
TORSDOF 24
REMARK  Name = ../refined-set-2016/4elg/4elg_pocket.pdb
REMARK  247 active torsions:
REMARK  status: ('A' for Active; 'I' for Inactive)
REMARK    1  A    between atoms: _1  and  _3
REMARK    2  A    between atoms: _3  and  _4
REMARK    3  A    between atoms: _3  and  _6
REMARK    4  A    between atoms: _6  and  _7
REMARK    5  A    between atoms: _13  and  _15
REMARK    6  A    between atoms: _15  and  _16
REMARK    7  A    between atoms: _15  and  _18
REMARK    8  A    between atoms: _18  and  _19
REMARK    9  A    between atoms: _19  and  _20
REMARK   10  A    between atoms: _22  and  _24
REMARK   11  A    between atoms: _24  and  _25
REMARK   12  A    between atoms: _24  and  _27
REMARK   13  A    between atoms: _30  and  _32
REMARK   14  A    between atoms: _32  and  _33
REMARK   15  A    between atoms: _36  and  _38
REMARK   16  A    between atoms: _38  and  _39
REMARK   17  A    between atoms: _38  and  _41
REMARK   18  A    between atoms: _41  and  _42
REMARK   19  A    between atoms: _42  and  _43
REMARK   20  A    between atoms: _45  and  _47
REMARK   21  A    between atoms: _47  and  _48
REMARK   22  A    between atoms: _47  and  _50
REMARK   23  A    between atoms: _50  and  _51
REMARK   24  A    between atoms: _54  and  _56
REMARK   25  A    between atoms: _56  and  _57
REMARK   26  A    between atoms: _59  and  _61
REMARK   27  A    between atoms: _61  and  _62
REMARK   28  A    between atoms: _61  and  _64
REMARK   29  A    between atoms: _64  and  _65
REMARK   30  A    between atoms: _65  and  _66
REMARK   31  A    between atoms: _66  and  _67
REMARK   32  A    between atoms: _67  and  _68
REMARK   33  A    between atoms: _72  and  _74
REMARK   34  A    between atoms: _74  and  _75
REMARK   35  A    between atoms: _74  and  _77
REMARK   36  A    between atoms: _77  and  _78
REMARK   37  A    between atoms: _81  and  _83
REMARK   38  A    between atoms: _83  and  _84
REMARK   39  A    between atoms: _83  and  _86
REMARK   40  A    between atoms: _86  and  _87
REMARK   41  A    between atoms: _92  and  _94
REMARK   42  A    between atoms: _94  and  _95
REMARK   43  A    between atoms: _94  and  _97
REMARK   44  A    between atoms: _97  and  _98
REMARK   45  A    between atoms: _103  and  _105
REMARK   46  A    between atoms: _105  and  _106
REMARK   47  A    between atoms: _105  and  _108
REMARK   48  A    between atoms: _108  and  _109
REMARK   49  A    between atoms: _113  and  _114
REMARK   50  A    between atoms: _119  and  _121
REMARK   51  A    between atoms: _121  and  _122
REMARK   52  A    between atoms: _121  and  _124
REMARK   53  A    between atoms: _124  and  _125
REMARK   54  A    between atoms: _135  and  _137
REMARK   55  A    between atoms: _137  and  _138
REMARK   56  A    between atoms: _137  and  _140
REMARK   57  A    between atoms: _140  and  _141
REMARK   58  A    between atoms: _141  and  _142
REMARK   59  A    between atoms: _142  and  _143
REMARK   60  A    between atoms: _152  and  _154
REMARK   61  A    between atoms: _154  and  _155
REMARK   62  A    between atoms: _154  and  _157
REMARK   63  A    between atoms: _157  and  _158
REMARK   64  A    between atoms: _162  and  _163
REMARK   65  A    between atoms: _168  and  _170
REMARK   66  A    between atoms: _170  and  _171
REMARK   67  A    between atoms: _170  and  _173
REMARK   68  A    between atoms: _173  and  _174
REMARK   69  A    between atoms: _176  and  _178
REMARK   70  A    between atoms: _178  and  _179
REMARK   71  A    between atoms: _178  and  _181
REMARK   72  A    between atoms: _181  and  _182
REMARK   73  A    between atoms: _182  and  _183
REMARK   74  A    between atoms: _186  and  _188
REMARK   75  A    between atoms: _188  and  _189
REMARK   76  A    between atoms: _188  and  _191
REMARK   77  A    between atoms: _191  and  _192
REMARK   78  A    between atoms: _195  and  _197
REMARK   79  A    between atoms: _197  and  _198
REMARK   80  A    between atoms: _197  and  _200
REMARK   81  A    between atoms: _200  and  _201
REMARK   82  A    between atoms: _201  and  _202
REMARK   83  A    between atoms: _207  and  _209
REMARK   84  A    between atoms: _209  and  _210
REMARK   85  A    between atoms: _209  and  _212
REMARK   86  A    between atoms: _212  and  _213
REMARK   87  A    between atoms: _218  and  _219
REMARK   88  A    between atoms: _221  and  _223
REMARK   89  A    between atoms: _223  and  _224
REMARK   90  A    between atoms: _223  and  _226
REMARK   91  A    between atoms: _229  and  _231
REMARK   92  A    between atoms: _231  and  _232
REMARK   93  A    between atoms: _231  and  _234
REMARK   94  A    between atoms: _234  and  _235
REMARK   95  A    between atoms: _235  and  _236
REMARK   96  A    between atoms: _236  and  _237
REMARK   97  A    between atoms: _237  and  _238
REMARK   98  A    between atoms: _242  and  _244
REMARK   99  A    between atoms: _244  and  _245
REMARK  100  A    between atoms: _244  and  _247
REMARK  101  A    between atoms: _247  and  _248
REMARK  102  A    between atoms: _248  and  _249
REMARK  103  A    between atoms: _249  and  _250
REMARK  104  A    between atoms: _250  and  _251
REMARK  105  A    between atoms: _255  and  _257
REMARK  106  A    between atoms: _257  and  _258
REMARK  107  A    between atoms: _257  and  _260
REMARK  108  A    between atoms: _260  and  _261
REMARK  109  A    between atoms: _264  and  _266
REMARK  110  A    between atoms: _266  and  _267
REMARK  111  A    between atoms: _266  and  _269
REMARK  112  A    between atoms: _269  and  _270
REMARK  113  A    between atoms: _273  and  _275
REMARK  114  A    between atoms: _275  and  _276
REMARK  115  A    between atoms: _275  and  _278
REMARK  116  A    between atoms: _278  and  _279
REMARK  117  A    between atoms: _279  and  _280
REMARK  118  A    between atoms: _282  and  _284
REMARK  119  A    between atoms: _284  and  _285
REMARK  120  A    between atoms: _287  and  _289
REMARK  121  A    between atoms: _289  and  _290
REMARK  122  A    between atoms: _289  and  _292
REMARK  123  A    between atoms: _292  and  _293
REMARK  124  A    between atoms: _298  and  _300
REMARK  125  A    between atoms: _300  and  _301
REMARK  126  A    between atoms: _300  and  _303
REMARK  127  A    between atoms: _303  and  _304
REMARK  128  A    between atoms: _307  and  _309
REMARK  129  A    between atoms: _309  and  _310
REMARK  130  A    between atoms: _309  and  _312
REMARK  131  A    between atoms: _312  and  _313
REMARK  132  A    between atoms: _316  and  _318
REMARK  133  A    between atoms: _318  and  _319
REMARK  134  A    between atoms: _318  and  _321
REMARK  135  A    between atoms: _321  and  _322
REMARK  136  A    between atoms: _322  and  _323
REMARK  137  A    between atoms: _325  and  _327
REMARK  138  A    between atoms: _327  and  _328
REMARK  139  A    between atoms: _327  and  _330
REMARK  140  A    between atoms: _330  and  _331
REMARK  141  A    between atoms: _331  and  _332
REMARK  142  A    between atoms: _332  and  _333
REMARK  143  A    between atoms: _333  and  _334
REMARK  144  A    between atoms: _338  and  _340
REMARK  145  A    between atoms: _340  and  _341
REMARK  146  A    between atoms: _340  and  _343
REMARK  147  A    between atoms: _343  and  _344
REMARK  148  A    between atoms: _349  and  _351
REMARK  149  A    between atoms: _351  and  _352
REMARK  150  A    between atoms: _351  and  _354
REMARK  151  A    between atoms: _354  and  _355
REMARK  152  A    between atoms: _360  and  _361
REMARK  153  A    between atoms: _363  and  _365
REMARK  154  A    between atoms: _365  and  _366
REMARK  155  A    between atoms: _365  and  _368
REMARK  156  A    between atoms: _368  and  _369
REMARK  157  A    between atoms: _369  and  _370
REMARK  158  A    between atoms: _373  and  _375
REMARK  159  A    between atoms: _375  and  _376
REMARK  160  A    between atoms: _379  and  _381
REMARK  161  A    between atoms: _381  and  _382
REMARK  162  A    between atoms: _381  and  _384
REMARK  163  A    between atoms: _384  and  _385
REMARK  164  A    between atoms: _388  and  _390
REMARK  165  A    between atoms: _390  and  _391
REMARK  166  A    between atoms: _393  and  _395
REMARK  167  A    between atoms: _395  and  _396
REMARK  168  A    between atoms: _395  and  _398
REMARK  169  A    between atoms: _398  and  _399
REMARK  170  A    between atoms: _399  and  _400
REMARK  171  A    between atoms: _400  and  _401
REMARK  172  A    between atoms: _411  and  _412
REMARK  173  A    between atoms: _417  and  _419
REMARK  174  A    between atoms: _419  and  _420
REMARK  175  A    between atoms: _419  and  _422
REMARK  176  A    between atoms: _422  and  _423
REMARK  177  A    between atoms: _427  and  _428
REMARK  178  A    between atoms: _433  and  _435
REMARK  179  A    between atoms: _435  and  _436
REMARK  180  A    between atoms: _438  and  _440
REMARK  181  A    between atoms: _440  and  _441
REMARK  182  A    between atoms: _440  and  _443
REMARK  183  A    between atoms: _443  and  _444
REMARK  184  A    between atoms: _444  and  _445
REMARK  185  A    between atoms: _445  and  _446
REMARK  186  A    between atoms: _455  and  _457
REMARK  187  A    between atoms: _457  and  _458
REMARK  188  A    between atoms: _457  and  _460
REMARK  189  A    between atoms: _460  and  _461
REMARK  190  A    between atoms: _466  and  _468
REMARK  191  A    between atoms: _468  and  _469
REMARK  192  A    between atoms: _468  and  _471
REMARK  193  A    between atoms: _471  and  _472
REMARK  194  A    between atoms: _478  and  _480
REMARK  195  A    between atoms: _480  and  _481
REMARK  196  A    between atoms: _480  and  _483
REMARK  197  A    between atoms: _483  and  _484
REMARK  198  A    between atoms: _487  and  _489
REMARK  199  A    between atoms: _489  and  _490
REMARK  200  A    between atoms: _489  and  _492
REMARK  201  A    between atoms: _492  and  _493
REMARK  202  A    between atoms: _499  and  _501
REMARK  203  A    between atoms: _501  and  _502
REMARK  204  A    between atoms: _504  and  _506
REMARK  205  A    between atoms: _506  and  _507
REMARK  206  A    between atoms: _509  and  _511
REMARK  207  A    between atoms: _511  and  _512
REMARK  208  A    between atoms: _511  and  _514
REMARK  209  A    between atoms: _514  and  _515
REMARK  210  A    between atoms: _520  and  _521
REMARK  211  A    between atoms: _523  and  _525
REMARK  212  A    between atoms: _525  and  _526
REMARK  213  A    between atoms: _525  and  _528
REMARK  214  A    between atoms: _528  and  _529
REMARK  215  A    between atoms: _534  and  _535
REMARK  216  A    between atoms: _537  and  _539
REMARK  217  A    between atoms: _539  and  _540
REMARK  218  A    between atoms: _539  and  _542
REMARK  219  A    between atoms: _542  and  _543
REMARK  220  A    between atoms: _546  and  _548
REMARK  221  A    between atoms: _548  and  _549
REMARK  222  A    between atoms: _548  and  _551
REMARK  223  A    between atoms: _551  and  _552
REMARK  224  A    between atoms: _555  and  _557
REMARK  225  A    between atoms: _557  and  _558
REMARK  226  A    between atoms: _557  and  _560
REMARK  227  A    between atoms: _560  and  _561
REMARK  228  A    between atoms: _561  and  _562
REMARK  229  A    between atoms: _562  and  _563
REMARK  230  A    between atoms: _563  and  _564
REMARK  231  A    between atoms: _568  and  _570
REMARK  232  A    between atoms: _570  and  _571
REMARK  233  A    between atoms: _570  and  _573
REMARK  234  A    between atoms: _573  and  _574
REMARK  235  A    between atoms: _577  and  _579
REMARK  236  A    between atoms: _579  and  _580
REMARK  237  A    between atoms: _579  and  _582
REMARK  238  A    between atoms: _582  and  _583
REMARK  239  A    between atoms: _586  and  _588
REMARK  240  A    between atoms: _588  and  _589
REMARK  241  A    between atoms: _588  and  _591
REMARK  242  A    between atoms: _591  and  _592
REMARK  243  A    between atoms: _597  and  _598
REMARK  244  A    between atoms: _600  and  _602
REMARK  245  A    between atoms: _602  and  _603
REMARK  246  A    between atoms: _602  and  _605
REMARK  247  A    between atoms: _605  and  _606
REMARK                            x       y       z     vdW  Elec       q    Type
REMARK                         _______ _______ _______ _____ _____    ______ ____
ROOT
ATOM      1  CA  THR A   1       4.333 -25.960  -3.689  0.00  0.00    +0.160 C 
ENDROOT
BRANCH   1   2
ATOM      2  N   THR A   1       4.002 -25.476  -2.348  0.00  0.00    -0.237 NA
ATOM      3  H   THR A   1       4.518 -25.860  -1.531  0.00  0.00    +0.142 HD
ENDBRANCH   1   2
BRANCH   1   4
ATOM      4  C   THR A   1       4.573 -27.478  -3.669  0.00  0.00    +0.227 C 
ATOM      5  O   THR A   1       5.040 -28.050  -2.656  0.00  0.00    -0.287 OA
ENDBRANCH   1   4
BRANCH   1   6
ATOM      6  CB  THR A   1       5.529 -25.184  -4.303  0.00  0.00    +0.134 C 
ATOM      7  CG2 THR A   1       6.794 -25.448  -3.539  0.00  0.00    +0.034 C 
BRANCH   6   8
ATOM      8  OG1 THR A   1       5.723 -25.564  -5.672  0.00  0.00    -0.383 OA
ATOM      9  HG1 THR A   1       6.488 -25.061  -6.048  0.00  0.00    +0.210 HD
ENDBRANCH   6   8
ENDBRANCH   1   6
TORSDOF 4
REMARK  Name = ../refined-set-2016/4elg/4elg_pocket.pdb
REMARK  247 active torsions:
REMARK  status: ('A' for Active; 'I' for Inactive)
REMARK    1  A    between atoms: _1  and  _3
REMARK    2  A    between atoms: _3  and  _4
REMARK    3  A    between atoms: _3  and  _6
REMARK    4  A    between atoms: _6  and  _7
REMARK    5  A    between atoms: _13  and  _15
REMARK    6  A    between atoms: _15  and  _16
REMARK    7  A    between atoms: _15  and  _18
REMARK    8  A    between atoms: _18  and  _19
REMARK    9  A    between atoms: _19  and  _20
REMARK   10  A    between atoms: _22  and  _24
REMARK   11  A    between atoms: _24  and  _25
REMARK   12  A    between atoms: _24  and  _27
REMARK   13  A    between atoms: _30  and  _32
REMARK   14  A    between atoms: _32  and  _33
REMARK   15  A    between atoms: _36  and  _38
REMARK   16  A    between atoms: _38  and  _39
REMARK   17  A    between atoms: _38  and  _41
REMARK   18  A    between atoms: _41  and  _42
REMARK   19  A    between atoms: _42  and  _43
REMARK   20  A    between atoms: _45  and  _47
REMARK   21  A    between atoms: _47  and  _48
REMARK   22  A    between atoms: _47  and  _50
REMARK   23  A    between atoms: _50  and  _51
REMARK   24  A    between atoms: _54  and  _56
REMARK   25  A    between atoms: _56  and  _57
REMARK   26  A    between atoms: _59  and  _61
REMARK   27  A    between atoms: _61  and  _62
REMARK   28  A    between atoms: _61  and  _64
REMARK   29  A    between atoms: _64  and  _65
REMARK   30  A    between atoms: _65  and  _66
REMARK   31  A    between atoms: _66  and  _67
REMARK   32  A    between atoms: _67  and  _68
REMARK   33  A    between atoms: _72  and  _74
REMARK   34  A    between atoms: _74  and  _75
REMARK   35  A    between atoms: _74  and  _77
REMARK   36  A    between atoms: _77  and  _78
REMARK   37  A    between atoms: _81  and  _83
REMARK   38  A    between atoms: _83  and  _84
REMARK   39  A    between atoms: _83  and  _86
REMARK   40  A    between atoms: _86  and  _87
REMARK   41  A    between atoms: _92  and  _94
REMARK   42  A    between atoms: _94  and  _95
REMARK   43  A    between atoms: _94  and  _97
REMARK   44  A    between atoms: _97  and  _98
REMARK   45  A    between atoms: _103  and  _105
REMARK   46  A    between atoms: _105  and  _106
REMARK   47  A    between atoms: _105  and  _108
REMARK   48  A    between atoms: _108  and  _109
REMARK   49  A    between atoms: _113  and  _114
REMARK   50  A    between atoms: _119  and  _121
REMARK   51  A    between atoms: _121  and  _122
REMARK   52  A    between atoms: _121  and  _124
REMARK   53  A    between atoms: _124  and  _125
REMARK   54  A    between atoms: _135  and  _137
REMARK   55  A    between atoms: _137  and  _138
REMARK   56  A    between atoms: _137  and  _140
REMARK   57  A    between atoms: _140  and  _141
REMARK   58  A    between atoms: _141  and  _142
REMARK   59  A    between atoms: _142  and  _143
REMARK   60  A    between atoms: _152  and  _154
REMARK   61  A    between atoms: _154  and  _155
REMARK   62  A    between atoms: _154  and  _157
REMARK   63  A    between atoms: _157  and  _158
REMARK   64  A    between atoms: _162  and  _163
REMARK   65  A    between atoms: _168  and  _170
REMARK   66  A    between atoms: _170  and  _171
REMARK   67  A    between atoms: _170  and  _173
REMARK   68  A    between atoms: _173  and  _174
REMARK   69  A    between atoms: _176  and  _178
REMARK   70  A    between atoms: _178  and  _179
REMARK   71  A    between atoms: _178  and  _181
REMARK   72  A    between atoms: _181  and  _182
REMARK   73  A    between atoms: _182  and  _183
REMARK   74  A    between atoms: _186  and  _188
REMARK   75  A    between atoms: _188  and  _189
REMARK   76  A    between atoms: _188  and  _191
REMARK   77  A    between atoms: _191  and  _192
REMARK   78  A    between atoms: _195  and  _197
REMARK   79  A    between atoms: _197  and  _198
REMARK   80  A    between atoms: _197  and  _200
REMARK   81  A    between atoms: _200  and  _201
REMARK   82  A    between atoms: _201  and  _202
REMARK   83  A    between atoms: _207  and  _209
REMARK   84  A    between atoms: _209  and  _210
REMARK   85  A    between atoms: _209  and  _212
REMARK   86  A    between atoms: _212  and  _213
REMARK   87  A    between atoms: _218  and  _219
REMARK   88  A    between atoms: _221  and  _223
REMARK   89  A    between atoms: _223  and  _224
REMARK   90  A    between atoms: _223  and  _226
REMARK   91  A    between atoms: _229  and  _231
REMARK   92  A    between atoms: _231  and  _232
REMARK   93  A    between atoms: _231  and  _234
REMARK   94  A    between atoms: _234  and  _235
REMARK   95  A    between atoms: _235  and  _236
REMARK   96  A    between atoms: _236  and  _237
REMARK   97  A    between atoms: _237  and  _238
REMARK   98  A    between atoms: _242  and  _244
REMARK   99  A    between atoms: _244  and  _245
REMARK  100  A    between atoms: _244  and  _247
REMARK  101  A    between atoms: _247  and  _248
REMARK  102  A    between atoms: _248  and  _249
REMARK  103  A    between atoms: _249  and  _250
REMARK  104  A    between atoms: _250  and  _251
REMARK  105  A    between atoms: _255  and  _257
REMARK  106  A    between atoms: _257  and  _258
REMARK  107  A    between atoms: _257  and  _260
REMARK  108  A    between atoms: _260  and  _261
REMARK  109  A    between atoms: _264  and  _266
REMARK  110  A    between atoms: _266  and  _267
REMARK  111  A    between atoms: _266  and  _269
REMARK  112  A    between atoms: _269  and  _270
REMARK  113  A    between atoms: _273  and  _275
REMARK  114  A    between atoms: _275  and  _276
REMARK  115  A    between atoms: _275  and  _278
REMARK  116  A    between atoms: _278  and  _279
REMARK  117  A    between atoms: _279  and  _280
REMARK  118  A    between atoms: _282  and  _284
REMARK  119  A    between atoms: _284  and  _285
REMARK  120  A    between atoms: _287  and  _289
REMARK  121  A    between atoms: _289  and  _290
REMARK  122  A    between atoms: _289  and  _292
REMARK  123  A    between atoms: _292  and  _293
REMARK  124  A    between atoms: _298  and  _300
REMARK  125  A    between atoms: _300  and  _301
REMARK  126  A    between atoms: _300  and  _303
REMARK  127  A    between atoms: _303  and  _304
REMARK  128  A    between atoms: _307  and  _309
REMARK  129  A    between atoms: _309  and  _310
REMARK  130  A    between atoms: _309  and  _312
REMARK  131  A    between atoms: _312  and  _313
REMARK  132  A    between atoms: _316  and  _318
REMARK  133  A    between atoms: _318  and  _319
REMARK  134  A    between atoms: _318  and  _321
REMARK  135  A    between atoms: _321  and  _322
REMARK  136  A    between atoms: _322  and  _323
REMARK  137  A    between atoms: _325  and  _327
REMARK  138  A    between atoms: _327  and  _328
REMARK  139  A    between atoms: _327  and  _330
REMARK  140  A    between atoms: _330  and  _331
REMARK  141  A    between atoms: _331  and  _332
REMARK  142  A    between atoms: _332  and  _333
REMARK  143  A    between atoms: _333  and  _334
REMARK  144  A    between atoms: _338  and  _340
REMARK  145  A    between atoms: _340  and  _341
REMARK  146  A    between atoms: _340  and  _343
REMARK  147  A    between atoms: _343  and  _344
REMARK  148  A    between atoms: _349  and  _351
REMARK  149  A    between atoms: _351  and  _352
REMARK  150  A    between atoms: _351  and  _354
REMARK  151  A    between atoms: _354  and  _355
REMARK  152  A    between atoms: _360  and  _361
REMARK  153  A    between atoms: _363  and  _365
REMARK  154  A    between atoms: _365  and  _366
REMARK  155  A    between atoms: _365  and  _368
REMARK  156  A    between atoms: _368  and  _369
REMARK  157  A    between atoms: _369  and  _370
REMARK  158  A    between atoms: _373  and  _375
REMARK  159  A    between atoms: _375  and  _376
REMARK  160  A    between atoms: _379  and  _381
REMARK  161  A    between atoms: _381  and  _382
REMARK  162  A    between atoms: _381  and  _384
REMARK  163  A    between atoms: _384  and  _385
REMARK  164  A    between atoms: _388  and  _390
REMARK  165  A    between atoms: _390  and  _391
REMARK  166  A    between atoms: _393  and  _395
REMARK  167  A    between atoms: _395  and  _396
REMARK  168  A    between atoms: _395  and  _398
REMARK  169  A    between atoms: _398  and  _399
REMARK  170  A    between atoms: _399  and  _400
REMARK  171  A    between atoms: _400  and  _401
REMARK  172  A    between atoms: _411  and  _412
REMARK  173  A    between atoms: _417  and  _419
REMARK  174  A    between atoms: _419  and  _420
REMARK  175  A    between atoms: _419  and  _422
REMARK  176  A    between atoms: _422  and  _423
REMARK  177  A    between atoms: _427  and  _428
REMARK  178  A    between atoms: _433  and  _435
REMARK  179  A    between atoms: _435  and  _436
REMARK  180  A    between atoms: _438  and  _440
REMARK  181  A    between atoms: _440  and  _441
REMARK  182  A    between atoms: _440  and  _443
REMARK  183  A    between atoms: _443  and  _444
REMARK  184  A    between atoms: _444  and  _445
REMARK  185  A    between atoms: _445  and  _446
REMARK  186  A    between atoms: _455  and  _457
REMARK  187  A    between atoms: _457  and  _458
REMARK  188  A    between atoms: _457  and  _460
REMARK  189  A    between atoms: _460  and  _461
REMARK  190  A    between atoms: _466  and  _468
REMARK  191  A    between atoms: _468  and  _469
REMARK  192  A    between atoms: _468  and  _471
REMARK  193  A    between atoms: _471  and  _472
REMARK  194  A    between atoms: _478  and  _480
REMARK  195  A    between atoms: _480  and  _481
REMARK  196  A    between atoms: _480  and  _483
REMARK  197  A    between atoms: _483  and  _484
REMARK  198  A    between atoms: _487  and  _489
REMARK  199  A    between atoms: _489  and  _490
REMARK  200  A    between atoms: _489  and  _492
REMARK  201  A    between atoms: _492  and  _493
REMARK  202  A    between atoms: _499  and  _501
REMARK  203  A    between atoms: _501  and  _502
REMARK  204  A    between atoms: _504  and  _506
REMARK  205  A    between atoms: _506  and  _507
REMARK  206  A    between atoms: _509  and  _511
REMARK  207  A    between atoms: _511  and  _512
REMARK  208  A    between atoms: _511  and  _514
REMARK  209  A    between atoms: _514  and  _515
REMARK  210  A    between atoms: _520  and  _521
REMARK  211  A    between atoms: _523  and  _525
REMARK  212  A    between atoms: _525  and  _526
REMARK  213  A    between atoms: _525  and  _528
REMARK  214  A    between atoms: _528  and  _529
REMARK  215  A    between atoms: _534  and  _535
REMARK  216  A    between atoms: _537  and  _539
REMARK  217  A    between atoms: _539  and  _540
REMARK  218  A    between atoms: _539  and  _542
REMARK  219  A    between atoms: _542  and  _543
REMARK  220  A    between atoms: _546  and  _548
REMARK  221  A    between atoms: _548  and  _549
REMARK  222  A    between atoms: _548  and  _551
REMARK  223  A    between atoms: _551  and  _552
REMARK  224  A    between atoms: _555  and  _557
REMARK  225  A    between atoms: _557  and  _558
REMARK  226  A    between atoms: _557  and  _560
REMARK  227  A    between atoms: _560  and  _561
REMARK  228  A    between atoms: _561  and  _562
REMARK  229  A    between atoms: _562  and  _563
REMARK  230  A    between atoms: _563  and  _564
REMARK  231  A    between atoms: _568  and  _570
REMARK  232  A    between atoms: _570  and  _571
REMARK  233  A    between atoms: _570  and  _573
REMARK  234  A    between atoms: _573  and  _574
REMARK  235  A    between atoms: _577  and  _579
REMARK  236  A    between atoms: _579  and  _580
REMARK  237  A    between atoms: _579  and  _582
REMARK  238  A    between atoms: _582  and  _583
REMARK  239  A    between atoms: _586  and  _588
REMARK  240  A    between atoms: _588  and  _589
REMARK  241  A    between atoms: _588  and  _591
REMARK  242  A    between atoms: _591  and  _592
REMARK  243  A    between atoms: _597  and  _598
REMARK  244  A    between atoms: _600  and  _602
REMARK  245  A    between atoms: _602  and  _603
REMARK  246  A    between atoms: _602  and  _605
REMARK  247  A    between atoms: _605  and  _606
REMARK                            x       y       z     vdW  Elec       q    Type
REMARK                         _______ _______ _______ _____ _____    ______ ____
ROOT
ATOM      1  C   TYR A   1      14.374 -44.148  -2.851  0.00  0.00    +0.239 C 
ATOM      2  O   TYR A   1      14.438 -45.370  -2.599  0.00  0.00    -0.274 OA
ATOM      3  N   HIS A   2      13.736 -43.631  -3.904  0.00  0.00    -0.298 N 
ATOM      4  H   HIS A   2      13.673 -42.596  -3.980  0.00  0.00    +0.150 HD
ENDROOT
BRANCH   1   5
ATOM      5  CA  TYR A   1      15.032 -43.148  -1.924  0.00  0.00    +0.149 C 
BRANCH   5   6
ATOM      6  N   TYR A   1      14.606 -43.458  -0.559  0.00  0.00    -0.238 NA
ATOM      7  H   TYR A   1      15.216 -44.058   0.032  0.00  0.00    +0.142 HD
ENDBRANCH   5   6
BRANCH   5   8
ATOM      8  CB  TYR A   1      16.554 -43.280  -2.072  0.00  0.00    +0.053 C 
BRANCH   8   9
ATOM      9  CG  TYR A   1      17.319 -42.437  -1.090  0.00  0.00    -0.020 A 
ATOM     10  CD2 TYR A   1      18.054 -43.020  -0.061  0.00  0.00    -0.001 A 
ATOM     11  CE2 TYR A   1      18.750 -42.236   0.867  0.00  0.00    +0.036 A 
ATOM     12  CZ  TYR A   1      18.707 -40.849   0.761  0.00  0.00    +0.134 A 
ATOM     13  CE1 TYR A   1      17.977 -40.257  -0.244  0.00  0.00    +0.036 A 
ATOM     14  CD1 TYR A   1      17.288 -41.050  -1.167  0.00  0.00    -0.001 A 
BRANCH  12  15
ATOM     15  OH  TYR A   1      19.392 -40.057   1.651  0.00  0.00    -0.506 OA
ATOM     16  HH  TYR A   1      19.863 -40.630   2.307  0.00  0.00    +0.292 HD
ENDBRANCH  12  15
ENDBRANCH   8   9
ENDBRANCH   5   8
ENDBRANCH   1   5
BRANCH   3  17
ATOM     17  CA  HIS A   2      13.117 -44.446  -4.963  0.00  0.00    +0.143 C 
BRANCH  17  18
ATOM     18  C   HIS A   2      13.645 -44.009  -6.334  0.00  0.00    +0.227 C 
ATOM     19  O   HIS A   2      13.811 -42.808  -6.612  0.00  0.00    -0.286 OA
ENDBRANCH  17  18
BRANCH  17  20
ATOM     20  CB  HIS A   2      11.589 -44.299  -4.983  0.00  0.00    +0.075 C 
BRANCH  20  21
ATOM     21  CG  HIS A   2      10.909 -44.774  -3.736  0.00  0.00    +0.082 A 
ATOM     22  CD2 HIS A   2      10.586 -44.123  -2.592  0.00  0.00    +0.115 A 
ATOM     23  NE2 HIS A   2       9.968 -45.035  -1.767  0.00  0.00    -0.221 NA
ATOM     24  CE1 HIS A   2       9.910 -46.203  -2.385  0.00  0.00    +0.199 A 
ATOM     25  ND1 HIS A   2      10.477 -46.074  -3.573  0.00  0.00    -0.227 NA
ENDBRANCH  20  21
ENDBRANCH  17  20
ENDBRANCH   3  17
TORSDOF 9
REMARK  Name = ../refined-set-2016/4elg/4elg_pocket.pdb
REMARK  247 active torsions:
REMARK  status: ('A' for Active; 'I' for Inactive)
REMARK    1  A    between atoms: _1  and  _3
REMARK    2  A    between atoms: _3  and  _4
REMARK    3  A    between atoms: _3  and  _6
REMARK    4  A    between atoms: _6  and  _7
REMARK    5  A    between atoms: _13  and  _15
REMARK    6  A    between atoms: _15  and  _16
REMARK    7  A    between atoms: _15  and  _18
REMARK    8  A    between atoms: _18  and  _19
REMARK    9  A    between atoms: _19  and  _20
REMARK   10  A    between atoms: _22  and  _24
REMARK   11  A    between atoms: _24  and  _25
REMARK   12  A    between atoms: _24  and  _27
REMARK   13  A    between atoms: _30  and  _32
REMARK   14  A    between atoms: _32  and  _33
REMARK   15  A    between atoms: _36  and  _38
REMARK   16  A    between atoms: _38  and  _39
REMARK   17  A    between atoms: _38  and  _41
REMARK   18  A    between atoms: _41  and  _42
REMARK   19  A    between atoms: _42  and  _43
REMARK   20  A    between atoms: _45  and  _47
REMARK   21  A    between atoms: _47  and  _48
REMARK   22  A    between atoms: _47  and  _50
REMARK   23  A    between atoms: _50  and  _51
REMARK   24  A    between atoms: _54  and  _56
REMARK   25  A    between atoms: _56  and  _57
REMARK   26  A    between atoms: _59  and  _61
REMARK   27  A    between atoms: _61  and  _62
REMARK   28  A    between atoms: _61  and  _64
REMARK   29  A    between atoms: _64  and  _65
REMARK   30  A    between atoms: _65  and  _66
REMARK   31  A    between atoms: _66  and  _67
REMARK   32  A    between atoms: _67  and  _68
REMARK   33  A    between atoms: _72  and  _74
REMARK   34  A    between atoms: _74  and  _75
REMARK   35  A    between atoms: _74  and  _77
REMARK   36  A    between atoms: _77  and  _78
REMARK   37  A    between atoms: _81  and  _83
REMARK   38  A    between atoms: _83  and  _84
REMARK   39  A    between atoms: _83  and  _86
REMARK   40  A    between atoms: _86  and  _87
REMARK   41  A    between atoms: _92  and  _94
REMARK   42  A    between atoms: _94  and  _95
REMARK   43  A    between atoms: _94  and  _97
REMARK   44  A    between atoms: _97  and  _98
REMARK   45  A    between atoms: _103  and  _105
REMARK   46  A    between atoms: _105  and  _106
REMARK   47  A    between atoms: _105  and  _108
REMARK   48  A    between atoms: _108  and  _109
REMARK   49  A    between atoms: _113  and  _114
REMARK   50  A    between atoms: _119  and  _121
REMARK   51  A    between atoms: _121  and  _122
REMARK   52  A    between atoms: _121  and  _124
REMARK   53  A    between atoms: _124  and  _125
REMARK   54  A    between atoms: _135  and  _137
REMARK   55  A    between atoms: _137  and  _138
REMARK   56  A    between atoms: _137  and  _140
REMARK   57  A    between atoms: _140  and  _141
REMARK   58  A    between atoms: _141  and  _142
REMARK   59  A    between atoms: _142  and  _143
REMARK   60  A    between atoms: _152  and  _154
REMARK   61  A    between atoms: _154  and  _155
REMARK   62  A    between atoms: _154  and  _157
REMARK   63  A    between atoms: _157  and  _158
REMARK   64  A    between atoms: _162  and  _163
REMARK   65  A    between atoms: _168  and  _170
REMARK   66  A    between atoms: _170  and  _171
REMARK   67  A    between atoms: _170  and  _173
REMARK   68  A    between atoms: _173  and  _174
REMARK   69  A    between atoms: _176  and  _178
REMARK   70  A    between atoms: _178  and  _179
REMARK   71  A    between atoms: _178  and  _181
REMARK   72  A    between atoms: _181  and  _182
REMARK   73  A    between atoms: _182  and  _183
REMARK   74  A    between atoms: _186  and  _188
REMARK   75  A    between atoms: _188  and  _189
REMARK   76  A    between atoms: _188  and  _191
REMARK   77  A    between atoms: _191  and  _192
REMARK   78  A    between atoms: _195  and  _197
REMARK   79  A    between atoms: _197  and  _198
REMARK   80  A    between atoms: _197  and  _200
REMARK   81  A    between atoms: _200  and  _201
REMARK   82  A    between atoms: _201  and  _202
REMARK   83  A    between atoms: _207  and  _209
REMARK   84  A    between atoms: _209  and  _210
REMARK   85  A    between atoms: _209  and  _212
REMARK   86  A    between atoms: _212  and  _213
REMARK   87  A    between atoms: _218  and  _219
REMARK   88  A    between atoms: _221  and  _223
REMARK   89  A    between atoms: _223  and  _224
REMARK   90  A    between atoms: _223  and  _226
REMARK   91  A    between atoms: _229  and  _231
REMARK   92  A    between atoms: _231  and  _232
REMARK   93  A    between atoms: _231  and  _234
REMARK   94  A    between atoms: _234  and  _235
REMARK   95  A    between atoms: _235  and  _236
REMARK   96  A    between atoms: _236  and  _237
REMARK   97  A    between atoms: _237  and  _238
REMARK   98  A    between atoms: _242  and  _244
REMARK   99  A    between atoms: _244  and  _245
REMARK  100  A    between atoms: _244  and  _247
REMARK  101  A    between atoms: _247  and  _248
REMARK  102  A    between atoms: _248  and  _249
REMARK  103  A    between atoms: _249  and  _250
REMARK  104  A    between atoms: _250  and  _251
REMARK  105  A    between atoms: _255  and  _257
REMARK  106  A    between atoms: _257  and  _258
REMARK  107  A    between atoms: _257  and  _260
REMARK  108  A    between atoms: _260  and  _261
REMARK  109  A    between atoms: _264  and  _266
REMARK  110  A    between atoms: _266  and  _267
REMARK  111  A    between atoms: _266  and  _269
REMARK  112  A    between atoms: _269  and  _270
REMARK  113  A    between atoms: _273  and  _275
REMARK  114  A    between atoms: _275  and  _276
REMARK  115  A    between atoms: _275  and  _278
REMARK  116  A    between atoms: _278  and  _279
REMARK  117  A    between atoms: _279  and  _280
REMARK  118  A    between atoms: _282  and  _284
REMARK  119  A    between atoms: _284  and  _285
REMARK  120  A    between atoms: _287  and  _289
REMARK  121  A    between atoms: _289  and  _290
REMARK  122  A    between atoms: _289  and  _292
REMARK  123  A    between atoms: _292  and  _293
REMARK  124  A    between atoms: _298  and  _300
REMARK  125  A    between atoms: _300  and  _301
REMARK  126  A    between atoms: _300  and  _303
REMARK  127  A    between atoms: _303  and  _304
REMARK  128  A    between atoms: _307  and  _309
REMARK  129  A    between atoms: _309  and  _310
REMARK  130  A    between atoms: _309  and  _312
REMARK  131  A    between atoms: _312  and  _313
REMARK  132  A    between atoms: _316  and  _318
REMARK  133  A    between atoms: _318  and  _319
REMARK  134  A    between atoms: _318  and  _321
REMARK  135  A    between atoms: _321  and  _322
REMARK  136  A    between atoms: _322  and  _323
REMARK  137  A    between atoms: _325  and  _327
REMARK  138  A    between atoms: _327  and  _328
REMARK  139  A    between atoms: _327  and  _330
REMARK  140  A    between atoms: _330  and  _331
REMARK  141  A    between atoms: _331  and  _332
REMARK  142  A    between atoms: _332  and  _333
REMARK  143  A    between atoms: _333  and  _334
REMARK  144  A    between atoms: _338  and  _340
REMARK  145  A    between atoms: _340  and  _341
REMARK  146  A    between atoms: _340  and  _343
REMARK  147  A    between atoms: _343  and  _344
REMARK  148  A    between atoms: _349  and  _351
REMARK  149  A    between atoms: _351  and  _352
REMARK  150  A    between atoms: _351  and  _354
REMARK  151  A    between atoms: _354  and  _355
REMARK  152  A    between atoms: _360  and  _361
REMARK  153  A    between atoms: _363  and  _365
REMARK  154  A    between atoms: _365  and  _366
REMARK  155  A    between atoms: _365  and  _368
REMARK  156  A    between atoms: _368  and  _369
REMARK  157  A    between atoms: _369  and  _370
REMARK  158  A    between atoms: _373  and  _375
REMARK  159  A    between atoms: _375  and  _376
REMARK  160  A    between atoms: _379  and  _381
REMARK  161  A    between atoms: _381  and  _382
REMARK  162  A    between atoms: _381  and  _384
REMARK  163  A    between atoms: _384  and  _385
REMARK  164  A    between atoms: _388  and  _390
REMARK  165  A    between atoms: _390  and  _391
REMARK  166  A    between atoms: _393  and  _395
REMARK  167  A    between atoms: _395  and  _396
REMARK  168  A    between atoms: _395  and  _398
REMARK  169  A    between atoms: _398  and  _399
REMARK  170  A    between atoms: _399  and  _400
REMARK  171  A    between atoms: _400  and  _401
REMARK  172  A    between atoms: _411  and  _412
REMARK  173  A    between atoms: _417  and  _419
REMARK  174  A    between atoms: _419  and  _420
REMARK  175  A    between atoms: _419  and  _422
REMARK  176  A    between atoms: _422  and  _423
REMARK  177  A    between atoms: _427  and  _428
REMARK  178  A    between atoms: _433  and  _435
REMARK  179  A    between atoms: _435  and  _436
REMARK  180  A    between atoms: _438  and  _440
REMARK  181  A    between atoms: _440  and  _441
REMARK  182  A    between atoms: _440  and  _443
REMARK  183  A    between atoms: _443  and  _444
REMARK  184  A    between atoms: _444  and  _445
REMARK  185  A    between atoms: _445  and  _446
REMARK  186  A    between atoms: _455  and  _457
REMARK  187  A    between atoms: _457  and  _458
REMARK  188  A    between atoms: _457  and  _460
REMARK  189  A    between atoms: _460  and  _461
REMARK  190  A    between atoms: _466  and  _468
REMARK  191  A    between atoms: _468  and  _469
REMARK  192  A    between atoms: _468  and  _471
REMARK  193  A    between atoms: _471  and  _472
REMARK  194  A    between atoms: _478  and  _480
REMARK  195  A    between atoms: _480  and  _481
REMARK  196  A    between atoms: _480  and  _483
REMARK  197  A    between atoms: _483  and  _484
REMARK  198  A    between atoms: _487  and  _489
REMARK  199  A    between atoms: _489  and  _490
REMARK  200  A    between atoms: _489  and  _492
REMARK  201  A    between atoms: _492  and  _493
REMARK  202  A    between atoms: _499  and  _501
REMARK  203  A    between atoms: _501  and  _502
REMARK  204  A    between atoms: _504  and  _506
REMARK  205  A    between atoms: _506  and  _507
REMARK  206  A    between atoms: _509  and  _511
REMARK  207  A    between atoms: _511  and  _512
REMARK  208  A    between atoms: _511  and  _514
REMARK  209  A    between atoms: _514  and  _515
REMARK  210  A    between atoms: _520  and  _521
REMARK  211  A    between atoms: _523  and  _525
REMARK  212  A    between atoms: _525  and  _526
REMARK  213  A    between atoms: _525  and  _528
REMARK  214  A    between atoms: _528  and  _529
REMARK  215  A    between atoms: _534  and  _535
REMARK  216  A    between atoms: _537  and  _539
REMARK  217  A    between atoms: _539  and  _540
REMARK  218  A    between atoms: _539  and  _542
REMARK  219  A    between atoms: _542  and  _543
REMARK  220  A    between atoms: _546  and  _548
REMARK  221  A    between atoms: _548  and  _549
REMARK  222  A    between atoms: _548  and  _551
REMARK  223  A    between atoms: _551  and  _552
REMARK  224  A    between atoms: _555  and  _557
REMARK  225  A    between atoms: _557  and  _558
REMARK  226  A    between atoms: _557  and  _560
REMARK  227  A    between atoms: _560  and  _561
REMARK  228  A    between atoms: _561  and  _562
REMARK  229  A    between atoms: _562  and  _563
REMARK  230  A    between atoms: _563  and  _564
REMARK  231  A    between atoms: _568  and  _570
REMARK  232  A    between atoms: _570  and  _571
REMARK  233  A    between atoms: _570  and  _573
REMARK  234  A    between atoms: _573  and  _574
REMARK  235  A    between atoms: _577  and  _579
REMARK  236  A    between atoms: _579  and  _580
REMARK  237  A    between atoms: _579  and  _582
REMARK  238  A    between atoms: _582  and  _583
REMARK  239  A    between atoms: _586  and  _588
REMARK  240  A    between atoms: _588  and  _589
REMARK  241  A    between atoms: _588  and  _591
REMARK  242  A    between atoms: _591  and  _592
REMARK  243  A    between atoms: _597  and  _598
REMARK  244  A    between atoms: _600  and  _602
REMARK  245  A    between atoms: _602  and  _603
REMARK  246  A    between atoms: _602  and  _605
REMARK  247  A    between atoms: _605  and  _606
REMARK                            x       y       z     vdW  Elec       q    Type
REMARK                         _______ _______ _______ _____ _____    ______ ____
ROOT
ATOM      1  O   HOH     1      15.545 -38.946  -4.812  0.00  0.00    +0.000 OA
ENDROOT
TORSDOF 0
REMARK  Name = ../refined-set-2016/4elg/4elg_pocket.pdb
REMARK  247 active torsions:
REMARK  status: ('A' for Active; 'I' for Inactive)
REMARK    1  A    between atoms: _1  and  _3
REMARK    2  A    between atoms: _3  and  _4
REMARK    3  A    between atoms: _3  and  _6
REMARK    4  A    between atoms: _6  and  _7
REMARK    5  A    between atoms: _13  and  _15
REMARK    6  A    between atoms: _15  and  _16
REMARK    7  A    between atoms: _15  and  _18
REMARK    8  A    between atoms: _18  and  _19
REMARK    9  A    between atoms: _19  and  _20
REMARK   10  A    between atoms: _22  and  _24
REMARK   11  A    between atoms: _24  and  _25
REMARK   12  A    between atoms: _24  and  _27
REMARK   13  A    between atoms: _30  and  _32
REMARK   14  A    between atoms: _32  and  _33
REMARK   15  A    between atoms: _36  and  _38
REMARK   16  A    between atoms: _38  and  _39
REMARK   17  A    between atoms: _38  and  _41
REMARK   18  A    between atoms: _41  and  _42
REMARK   19  A    between atoms: _42  and  _43
REMARK   20  A    between atoms: _45  and  _47
REMARK   21  A    between atoms: _47  and  _48
REMARK   22  A    between atoms: _47  and  _50
REMARK   23  A    between atoms: _50  and  _51
REMARK   24  A    between atoms: _54  and  _56
REMARK   25  A    between atoms: _56  and  _57
REMARK   26  A    between atoms: _59  and  _61
REMARK   27  A    between atoms: _61  and  _62
REMARK   28  A    between atoms: _61  and  _64
REMARK   29  A    between atoms: _64  and  _65
REMARK   30  A    between atoms: _65  and  _66
REMARK   31  A    between atoms: _66  and  _67
REMARK   32  A    between atoms: _67  and  _68
REMARK   33  A    between atoms: _72  and  _74
REMARK   34  A    between atoms: _74  and  _75
REMARK   35  A    between atoms: _74  and  _77
REMARK   36  A    between atoms: _77  and  _78
REMARK   37  A    between atoms: _81  and  _83
REMARK   38  A    between atoms: _83  and  _84
REMARK   39  A    between atoms: _83  and  _86
REMARK   40  A    between atoms: _86  and  _87
REMARK   41  A    between atoms: _92  and  _94
REMARK   42  A    between atoms: _94  and  _95
REMARK   43  A    between atoms: _94  and  _97
REMARK   44  A    between atoms: _97  and  _98
REMARK   45  A    between atoms: _103  and  _105
REMARK   46  A    between atoms: _105  and  _106
REMARK   47  A    between atoms: _105  and  _108
REMARK   48  A    between atoms: _108  and  _109
REMARK   49  A    between atoms: _113  and  _114
REMARK   50  A    between atoms: _119  and  _121
REMARK   51  A    between atoms: _121  and  _122
REMARK   52  A    between atoms: _121  and  _124
REMARK   53  A    between atoms: _124  and  _125
REMARK   54  A    between atoms: _135  and  _137
REMARK   55  A    between atoms: _137  and  _138
REMARK   56  A    between atoms: _137  and  _140
REMARK   57  A    between atoms: _140  and  _141
REMARK   58  A    between atoms: _141  and  _142
REMARK   59  A    between atoms: _142  and  _143
REMARK   60  A    between atoms: _152  and  _154
REMARK   61  A    between atoms: _154  and  _155
REMARK   62  A    between atoms: _154  and  _157
REMARK   63  A    between atoms: _157  and  _158
REMARK   64  A    between atoms: _162  and  _163
REMARK   65  A    between atoms: _168  and  _170
REMARK   66  A    between atoms: _170  and  _171
REMARK   67  A    between atoms: _170  and  _173
REMARK   68  A    between atoms: _173  and  _174
REMARK   69  A    between atoms: _176  and  _178
REMARK   70  A    between atoms: _178  and  _179
REMARK   71  A    between atoms: _178  and  _181
REMARK   72  A    between atoms: _181  and  _182
REMARK   73  A    between atoms: _182  and  _183
REMARK   74  A    between atoms: _186  and  _188
REMARK   75  A    between atoms: _188  and  _189
REMARK   76  A    between atoms: _188  and  _191
REMARK   77  A    between atoms: _191  and  _192
REMARK   78  A    between atoms: _195  and  _197
REMARK   79  A    between atoms: _197  and  _198
REMARK   80  A    between atoms: _197  and  _200
REMARK   81  A    between atoms: _200  and  _201
REMARK   82  A    between atoms: _201  and  _202
REMARK   83  A    between atoms: _207  and  _209
REMARK   84  A    between atoms: _209  and  _210
REMARK   85  A    between atoms: _209  and  _212
REMARK   86  A    between atoms: _212  and  _213
REMARK   87  A    between atoms: _218  and  _219
REMARK   88  A    between atoms: _221  and  _223
REMARK   89  A    between atoms: _223  and  _224
REMARK   90  A    between atoms: _223  and  _226
REMARK   91  A    between atoms: _229  and  _231
REMARK   92  A    between atoms: _231  and  _232
REMARK   93  A    between atoms: _231  and  _234
REMARK   94  A    between atoms: _234  and  _235
REMARK   95  A    between atoms: _235  and  _236
REMARK   96  A    between atoms: _236  and  _237
REMARK   97  A    between atoms: _237  and  _238
REMARK   98  A    between atoms: _242  and  _244
REMARK   99  A    between atoms: _244  and  _245
REMARK  100  A    between atoms: _244  and  _247
REMARK  101  A    between atoms: _247  and  _248
REMARK  102  A    between atoms: _248  and  _249
REMARK  103  A    between atoms: _249  and  _250
REMARK  104  A    between atoms: _250  and  _251
REMARK  105  A    between atoms: _255  and  _257
REMARK  106  A    between atoms: _257  and  _258
REMARK  107  A    between atoms: _257  and  _260
REMARK  108  A    between atoms: _260  and  _261
REMARK  109  A    between atoms: _264  and  _266
REMARK  110  A    between atoms: _266  and  _267
REMARK  111  A    between atoms: _266  and  _269
REMARK  112  A    between atoms: _269  and  _270
REMARK  113  A    between atoms: _273  and  _275
REMARK  114  A    between atoms: _275  and  _276
REMARK  115  A    between atoms: _275  and  _278
REMARK  116  A    between atoms: _278  and  _279
REMARK  117  A    between atoms: _279  and  _280
REMARK  118  A    between atoms: _282  and  _284
REMARK  119  A    between atoms: _284  and  _285
REMARK  120  A    between atoms: _287  and  _289
REMARK  121  A    between atoms: _289  and  _290
REMARK  122  A    between atoms: _289  and  _292
REMARK  123  A    between atoms: _292  and  _293
REMARK  124  A    between atoms: _298  and  _300
REMARK  125  A    between atoms: _300  and  _301
REMARK  126  A    between atoms: _300  and  _303
REMARK  127  A    between atoms: _303  and  _304
REMARK  128  A    between atoms: _307  and  _309
REMARK  129  A    between atoms: _309  and  _310
REMARK  130  A    between atoms: _309  and  _312
REMARK  131  A    between atoms: _312  and  _313
REMARK  132  A    between atoms: _316  and  _318
REMARK  133  A    between atoms: _318  and  _319
REMARK  134  A    between atoms: _318  and  _321
REMARK  135  A    between atoms: _321  and  _322
REMARK  136  A    between atoms: _322  and  _323
REMARK  137  A    between atoms: _325  and  _327
REMARK  138  A    between atoms: _327  and  _328
REMARK  139  A    between atoms: _327  and  _330
REMARK  140  A    between atoms: _330  and  _331
REMARK  141  A    between atoms: _331  and  _332
REMARK  142  A    between atoms: _332  and  _333
REMARK  143  A    between atoms: _333  and  _334
REMARK  144  A    between atoms: _338  and  _340
REMARK  145  A    between atoms: _340  and  _341
REMARK  146  A    between atoms: _340  and  _343
REMARK  147  A    between atoms: _343  and  _344
REMARK  148  A    between atoms: _349  and  _351
REMARK  149  A    between atoms: _351  and  _352
REMARK  150  A    between atoms: _351  and  _354
REMARK  151  A    between atoms: _354  and  _355
REMARK  152  A    between atoms: _360  and  _361
REMARK  153  A    between atoms: _363  and  _365
REMARK  154  A    between atoms: _365  and  _366
REMARK  155  A    between atoms: _365  and  _368
REMARK  156  A    between atoms: _368  and  _369
REMARK  157  A    between atoms: _369  and  _370
REMARK  158  A    between atoms: _373  and  _375
REMARK  159  A    between atoms: _375  and  _376
REMARK  160  A    between atoms: _379  and  _381
REMARK  161  A    between atoms: _381  and  _382
REMARK  162  A    between atoms: _381  and  _384
REMARK  163  A    between atoms: _384  and  _385
REMARK  164  A    between atoms: _388  and  _390
REMARK  165  A    between atoms: _390  and  _391
REMARK  166  A    between atoms: _393  and  _395
REMARK  167  A    between atoms: _395  and  _396
REMARK  168  A    between atoms: _395  and  _398
REMARK  169  A    between atoms: _398  and  _399
REMARK  170  A    between atoms: _399  and  _400
REMARK  171  A    between atoms: _400  and  _401
REMARK  172  A    between atoms: _411  and  _412
REMARK  173  A    between atoms: _417  and  _419
REMARK  174  A    between atoms: _419  and  _420
REMARK  175  A    between atoms: _419  and  _422
REMARK  176  A    between atoms: _422  and  _423
REMARK  177  A    between atoms: _427  and  _428
REMARK  178  A    between atoms: _433  and  _435
REMARK  179  A    between atoms: _435  and  _436
REMARK  180  A    between atoms: _438  and  _440
REMARK  181  A    between atoms: _440  and  _441
REMARK  182  A    between atoms: _440  and  _443
REMARK  183  A    between atoms: _443  and  _444
REMARK  184  A    between atoms: _444  and  _445
REMARK  185  A    between atoms: _445  and  _446
REMARK  186  A    between atoms: _455  and  _457
REMARK  187  A    between atoms: _457  and  _458
REMARK  188  A    between atoms: _457  and  _460
REMARK  189  A    between atoms: _460  and  _461
REMARK  190  A    between atoms: _466  and  _468
REMARK  191  A    between atoms: _468  and  _469
REMARK  192  A    between atoms: _468  and  _471
REMARK  193  A    between atoms: _471  and  _472
REMARK  194  A    between atoms: _478  and  _480
REMARK  195  A    between atoms: _480  and  _481
REMARK  196  A    between atoms: _480  and  _483
REMARK  197  A    between atoms: _483  and  _484
REMARK  198  A    between atoms: _487  and  _489
REMARK  199  A    between atoms: _489  and  _490
REMARK  200  A    between atoms: _489  and  _492
REMARK  201  A    between atoms: _492  and  _493
REMARK  202  A    between atoms: _499  and  _501
REMARK  203  A    between atoms: _501  and  _502
REMARK  204  A    between atoms: _504  and  _506
REMARK  205  A    between atoms: _506  and  _507
REMARK  206  A    between atoms: _509  and  _511
REMARK  207  A    between atoms: _511  and  _512
REMARK  208  A    between atoms: _511  and  _514
REMARK  209  A    between atoms: _514  and  _515
REMARK  210  A    between atoms: _520  and  _521
REMARK  211  A    between atoms: _523  and  _525
REMARK  212  A    between atoms: _525  and  _526
REMARK  213  A    between atoms: _525  and  _528
REMARK  214  A    between atoms: _528  and  _529
REMARK  215  A    between atoms: _534  and  _535
REMARK  216  A    between atoms: _537  and  _539
REMARK  217  A    between atoms: _539  and  _540
REMARK  218  A    between atoms: _539  and  _542
REMARK  219  A    between atoms: _542  and  _543
REMARK  220  A    between atoms: _546  and  _548
REMARK  221  A    between atoms: _548  and  _549
REMARK  222  A    between atoms: _548  and  _551
REMARK  223  A    between atoms: _551  and  _552
REMARK  224  A    between atoms: _555  and  _557
REMARK  225  A    between atoms: _557  and  _558
REMARK  226  A    between atoms: _557  and  _560
REMARK  227  A    between atoms: _560  and  _561
REMARK  228  A    between atoms: _561  and  _562
REMARK  229  A    between atoms: _562  and  _563
REMARK  230  A    between atoms: _563  and  _564
REMARK  231  A    between atoms: _568  and  _570
REMARK  232  A    between atoms: _570  and  _571
REMARK  233  A    between atoms: _570  and  _573
REMARK  234  A    between atoms: _573  and  _574
REMARK  235  A    between atoms: _577  and  _579
REMARK  236  A    between atoms: _579  and  _580
REMARK  237  A    between atoms: _579  and  _582
REMARK  238  A    between atoms: _582  and  _583
REMARK  239  A    between atoms: _586  and  _588
REMARK  240  A    between atoms: _588  and  _589
REMARK  241  A    between atoms: _588  and  _591
REMARK  242  A    between atoms: _591  and  _592
REMARK  243  A    between atoms: _597  and  _598
REMARK  244  A    between atoms: _600  and  _602
REMARK  245  A    between atoms: _602  and  _603
REMARK  246  A    between atoms: _602  and  _605
REMARK  247  A    between atoms: _605  and  _606
REMARK                            x       y       z     vdW  Elec       q    Type
REMARK                         _______ _______ _______ _____ _____    ______ ____
ROOT
ATOM      1  O   HOH     1      16.061 -32.634   1.429  0.00  0.00    +0.000 OA
ENDROOT
TORSDOF 0
REMARK  Name = ../refined-set-2016/4elg/4elg_pocket.pdb
REMARK  247 active torsions:
REMARK  status: ('A' for Active; 'I' for Inactive)
REMARK    1  A    between atoms: _1  and  _3
REMARK    2  A    between atoms: _3  and  _4
REMARK    3  A    between atoms: _3  and  _6
REMARK    4  A    between atoms: _6  and  _7
REMARK    5  A    between atoms: _13  and  _15
REMARK    6  A    between atoms: _15  and  _16
REMARK    7  A    between atoms: _15  and  _18
REMARK    8  A    between atoms: _18  and  _19
REMARK    9  A    between atoms: _19  and  _20
REMARK   10  A    between atoms: _22  and  _24
REMARK   11  A    between atoms: _24  and  _25
REMARK   12  A    between atoms: _24  and  _27
REMARK   13  A    between atoms: _30  and  _32
REMARK   14  A    between atoms: _32  and  _33
REMARK   15  A    between atoms: _36  and  _38
REMARK   16  A    between atoms: _38  and  _39
REMARK   17  A    between atoms: _38  and  _41
REMARK   18  A    between atoms: _41  and  _42
REMARK   19  A    between atoms: _42  and  _43
REMARK   20  A    between atoms: _45  and  _47
REMARK   21  A    between atoms: _47  and  _48
REMARK   22  A    between atoms: _47  and  _50
REMARK   23  A    between atoms: _50  and  _51
REMARK   24  A    between atoms: _54  and  _56
REMARK   25  A    between atoms: _56  and  _57
REMARK   26  A    between atoms: _59  and  _61
REMARK   27  A    between atoms: _61  and  _62
REMARK   28  A    between atoms: _61  and  _64
REMARK   29  A    between atoms: _64  and  _65
REMARK   30  A    between atoms: _65  and  _66
REMARK   31  A    between atoms: _66  and  _67
REMARK   32  A    between atoms: _67  and  _68
REMARK   33  A    between atoms: _72  and  _74
REMARK   34  A    between atoms: _74  and  _75
REMARK   35  A    between atoms: _74  and  _77
REMARK   36  A    between atoms: _77  and  _78
REMARK   37  A    between atoms: _81  and  _83
REMARK   38  A    between atoms: _83  and  _84
REMARK   39  A    between atoms: _83  and  _86
REMARK   40  A    between atoms: _86  and  _87
REMARK   41  A    between atoms: _92  and  _94
REMARK   42  A    between atoms: _94  and  _95
REMARK   43  A    between atoms: _94  and  _97
REMARK   44  A    between atoms: _97  and  _98
REMARK   45  A    between atoms: _103  and  _105
REMARK   46  A    between atoms: _105  and  _106
REMARK   47  A    between atoms: _105  and  _108
REMARK   48  A    between atoms: _108  and  _109
REMARK   49  A    between atoms: _113  and  _114
REMARK   50  A    between atoms: _119  and  _121
REMARK   51  A    between atoms: _121  and  _122
REMARK   52  A    between atoms: _121  and  _124
REMARK   53  A    between atoms: _124  and  _125
REMARK   54  A    between atoms: _135  and  _137
REMARK   55  A    between atoms: _137  and  _138
REMARK   56  A    between atoms: _137  and  _140
REMARK   57  A    between atoms: _140  and  _141
REMARK   58  A    between atoms: _141  and  _142
REMARK   59  A    between atoms: _142  and  _143
REMARK   60  A    between atoms: _152  and  _154
REMARK   61  A    between atoms: _154  and  _155
REMARK   62  A    between atoms: _154  and  _157
REMARK   63  A    between atoms: _157  and  _158
REMARK   64  A    between atoms: _162  and  _163
REMARK   65  A    between atoms: _168  and  _170
REMARK   66  A    between atoms: _170  and  _171
REMARK   67  A    between atoms: _170  and  _173
REMARK   68  A    between atoms: _173  and  _174
REMARK   69  A    between atoms: _176  and  _178
REMARK   70  A    between atoms: _178  and  _179
REMARK   71  A    between atoms: _178  and  _181
REMARK   72  A    between atoms: _181  and  _182
REMARK   73  A    between atoms: _182  and  _183
REMARK   74  A    between atoms: _186  and  _188
REMARK   75  A    between atoms: _188  and  _189
REMARK   76  A    between atoms: _188  and  _191
REMARK   77  A    between atoms: _191  and  _192
REMARK   78  A    between atoms: _195  and  _197
REMARK   79  A    between atoms: _197  and  _198
REMARK   80  A    between atoms: _197  and  _200
REMARK   81  A    between atoms: _200  and  _201
REMARK   82  A    between atoms: _201  and  _202
REMARK   83  A    between atoms: _207  and  _209
REMARK   84  A    between atoms: _209  and  _210
REMARK   85  A    between atoms: _209  and  _212
REMARK   86  A    between atoms: _212  and  _213
REMARK   87  A    between atoms: _218  and  _219
REMARK   88  A    between atoms: _221  and  _223
REMARK   89  A    between atoms: _223  and  _224
REMARK   90  A    between atoms: _223  and  _226
REMARK   91  A    between atoms: _229  and  _231
REMARK   92  A    between atoms: _231  and  _232
REMARK   93  A    between atoms: _231  and  _234
REMARK   94  A    between atoms: _234  and  _235
REMARK   95  A    between atoms: _235  and  _236
REMARK   96  A    between atoms: _236  and  _237
REMARK   97  A    between atoms: _237  and  _238
REMARK   98  A    between atoms: _242  and  _244
REMARK   99  A    between atoms: _244  and  _245
REMARK  100  A    between atoms: _244  and  _247
REMARK  101  A    between atoms: _247  and  _248
REMARK  102  A    between atoms: _248  and  _249
REMARK  103  A    between atoms: _249  and  _250
REMARK  104  A    between atoms: _250  and  _251
REMARK  105  A    between atoms: _255  and  _257
REMARK  106  A    between atoms: _257  and  _258
REMARK  107  A    between atoms: _257  and  _260
REMARK  108  A    between atoms: _260  and  _261
REMARK  109  A    between atoms: _264  and  _266
REMARK  110  A    between atoms: _266  and  _267
REMARK  111  A    between atoms: _266  and  _269
REMARK  112  A    between atoms: _269  and  _270
REMARK  113  A    between atoms: _273  and  _275
REMARK  114  A    between atoms: _275  and  _276
REMARK  115  A    between atoms: _275  and  _278
REMARK  116  A    between atoms: _278  and  _279
REMARK  117  A    between atoms: _279  and  _280
REMARK  118  A    between atoms: _282  and  _284
REMARK  119  A    between atoms: _284  and  _285
REMARK  120  A    between atoms: _287  and  _289
REMARK  121  A    between atoms: _289  and  _290
REMARK  122  A    between atoms: _289  and  _292
REMARK  123  A    between atoms: _292  and  _293
REMARK  124  A    between atoms: _298  and  _300
REMARK  125  A    between atoms: _300  and  _301
REMARK  126  A    between atoms: _300  and  _303
REMARK  127  A    between atoms: _303  and  _304
REMARK  128  A    between atoms: _307  and  _309
REMARK  129  A    between atoms: _309  and  _310
REMARK  130  A    between atoms: _309  and  _312
REMARK  131  A    between atoms: _312  and  _313
REMARK  132  A    between atoms: _316  and  _318
REMARK  133  A    between atoms: _318  and  _319
REMARK  134  A    between atoms: _318  and  _321
REMARK  135  A    between atoms: _321  and  _322
REMARK  136  A    between atoms: _322  and  _323
REMARK  137  A    between atoms: _325  and  _327
REMARK  138  A    between atoms: _327  and  _328
REMARK  139  A    between atoms: _327  and  _330
REMARK  140  A    between atoms: _330  and  _331
REMARK  141  A    between atoms: _331  and  _332
REMARK  142  A    between atoms: _332  and  _333
REMARK  143  A    between atoms: _333  and  _334
REMARK  144  A    between atoms: _338  and  _340
REMARK  145  A    between atoms: _340  and  _341
REMARK  146  A    between atoms: _340  and  _343
REMARK  147  A    between atoms: _343  and  _344
REMARK  148  A    between atoms: _349  and  _351
REMARK  149  A    between atoms: _351  and  _352
REMARK  150  A    between atoms: _351  and  _354
REMARK  151  A    between atoms: _354  and  _355
REMARK  152  A    between atoms: _360  and  _361
REMARK  153  A    between atoms: _363  and  _365
REMARK  154  A    between atoms: _365  and  _366
REMARK  155  A    between atoms: _365  and  _368
REMARK  156  A    between atoms: _368  and  _369
REMARK  157  A    between atoms: _369  and  _370
REMARK  158  A    between atoms: _373  and  _375
REMARK  159  A    between atoms: _375  and  _376
REMARK  160  A    between atoms: _379  and  _381
REMARK  161  A    between atoms: _381  and  _382
REMARK  162  A    between atoms: _381  and  _384
REMARK  163  A    between atoms: _384  and  _385
REMARK  164  A    between atoms: _388  and  _390
REMARK  165  A    between atoms: _390  and  _391
REMARK  166  A    between atoms: _393  and  _395
REMARK  167  A    between atoms: _395  and  _396
REMARK  168  A    between atoms: _395  and  _398
REMARK  169  A    between atoms: _398  and  _399
REMARK  170  A    between atoms: _399  and  _400
REMARK  171  A    between atoms: _400  and  _401
REMARK  172  A    between atoms: _411  and  _412
REMARK  173  A    between atoms: _417  and  _419
REMARK  174  A    between atoms: _419  and  _420
REMARK  175  A    between atoms: _419  and  _422
REMARK  176  A    between atoms: _422  and  _423
REMARK  177  A    between atoms: _427  and  _428
REMARK  178  A    between atoms: _433  and  _435
REMARK  179  A    between atoms: _435  and  _436
REMARK  180  A    between atoms: _438  and  _440
REMARK  181  A    between atoms: _440  and  _441
REMARK  182  A    between atoms: _440  and  _443
REMARK  183  A    between atoms: _443  and  _444
REMARK  184  A    between atoms: _444  and  _445
REMARK  185  A    between atoms: _445  and  _446
REMARK  186  A    between atoms: _455  and  _457
REMARK  187  A    between atoms: _457  and  _458
REMARK  188  A    between atoms: _457  and  _460
REMARK  189  A    between atoms: _460  and  _461
REMARK  190  A    between atoms: _466  and  _468
REMARK  191  A    between atoms: _468  and  _469
REMARK  192  A    between atoms: _468  and  _471
REMARK  193  A    between atoms: _471  and  _472
REMARK  194  A    between atoms: _478  and  _480
REMARK  195  A    between atoms: _480  and  _481
REMARK  196  A    between atoms: _480  and  _483
REMARK  197  A    between atoms: _483  and  _484
REMARK  198  A    between atoms: _487  and  _489
REMARK  199  A    between atoms: _489  and  _490
REMARK  200  A    between atoms: _489  and  _492
REMARK  201  A    between atoms: _492  and  _493
REMARK  202  A    between atoms: _499  and  _501
REMARK  203  A    between atoms: _501  and  _502
REMARK  204  A    between atoms: _504  and  _506
REMARK  205  A    between atoms: _506  and  _507
REMARK  206  A    between atoms: _509  and  _511
REMARK  207  A    between atoms: _511  and  _512
REMARK  208  A    between atoms: _511  and  _514
REMARK  209  A    between atoms: _514  and  _515
REMARK  210  A    between atoms: _520  and  _521
REMARK  211  A    between atoms: _523  and  _525
REMARK  212  A    between atoms: _525  and  _526
REMARK  213  A    between atoms: _525  and  _528
REMARK  214  A    between atoms: _528  and  _529
REMARK  215  A    between atoms: _534  and  _535
REMARK  216  A    between atoms: _537  and  _539
REMARK  217  A    between atoms: _539  and  _540
REMARK  218  A    between atoms: _539  and  _542
REMARK  219  A    between atoms: _542  and  _543
REMARK  220  A    between atoms: _546  and  _548
REMARK  221  A    between atoms: _548  and  _549
REMARK  222  A    between atoms: _548  and  _551
REMARK  223  A    between atoms: _551  and  _552
REMARK  224  A    between atoms: _555  and  _557
REMARK  225  A    between atoms: _557  and  _558
REMARK  226  A    between atoms: _557  and  _560
REMARK  227  A    between atoms: _560  and  _561
REMARK  228  A    between atoms: _561  and  _562
REMARK  229  A    between atoms: _562  and  _563
REMARK  230  A    between atoms: _563  and  _564
REMARK  231  A    between atoms: _568  and  _570
REMARK  232  A    between atoms: _570  and  _571
REMARK  233  A    between atoms: _570  and  _573
REMARK  234  A    between atoms: _573  and  _574
REMARK  235  A    between atoms: _577  and  _579
REMARK  236  A    between atoms: _579  and  _580
REMARK  237  A    between atoms: _579  and  _582
REMARK  238  A    between atoms: _582  and  _583
REMARK  239  A    between atoms: _586  and  _588
REMARK  240  A    between atoms: _588  and  _589
REMARK  241  A    between atoms: _588  and  _591
REMARK  242  A    between atoms: _591  and  _592
REMARK  243  A    between atoms: _597  and  _598
REMARK  244  A    between atoms: _600  and  _602
REMARK  245  A    between atoms: _602  and  _603
REMARK  246  A    between atoms: _602  and  _605
REMARK  247  A    between atoms: _605  and  _606
REMARK                            x       y       z     vdW  Elec       q    Type
REMARK                         _______ _______ _______ _____ _____    ______ ____
ROOT
ATOM      1  O   HOH     1      16.695 -20.739   1.644  0.00  0.00    +0.000 OA
ENDROOT
TORSDOF 0
REMARK  Name = ../refined-set-2016/4elg/4elg_pocket.pdb
REMARK  247 active torsions:
REMARK  status: ('A' for Active; 'I' for Inactive)
REMARK    1  A    between atoms: _1  and  _3
REMARK    2  A    between atoms: _3  and  _4
REMARK    3  A    between atoms: _3  and  _6
REMARK    4  A    between atoms: _6  and  _7
REMARK    5  A    between atoms: _13  and  _15
REMARK    6  A    between atoms: _15  and  _16
REMARK    7  A    between atoms: _15  and  _18
REMARK    8  A    between atoms: _18  and  _19
REMARK    9  A    between atoms: _19  and  _20
REMARK   10  A    between atoms: _22  and  _24
REMARK   11  A    between atoms: _24  and  _25
REMARK   12  A    between atoms: _24  and  _27
REMARK   13  A    between atoms: _30  and  _32
REMARK   14  A    between atoms: _32  and  _33
REMARK   15  A    between atoms: _36  and  _38
REMARK   16  A    between atoms: _38  and  _39
REMARK   17  A    between atoms: _38  and  _41
REMARK   18  A    between atoms: _41  and  _42
REMARK   19  A    between atoms: _42  and  _43
REMARK   20  A    between atoms: _45  and  _47
REMARK   21  A    between atoms: _47  and  _48
REMARK   22  A    between atoms: _47  and  _50
REMARK   23  A    between atoms: _50  and  _51
REMARK   24  A    between atoms: _54  and  _56
REMARK   25  A    between atoms: _56  and  _57
REMARK   26  A    between atoms: _59  and  _61
REMARK   27  A    between atoms: _61  and  _62
REMARK   28  A    between atoms: _61  and  _64
REMARK   29  A    between atoms: _64  and  _65
REMARK   30  A    between atoms: _65  and  _66
REMARK   31  A    between atoms: _66  and  _67
REMARK   32  A    between atoms: _67  and  _68
REMARK   33  A    between atoms: _72  and  _74
REMARK   34  A    between atoms: _74  and  _75
REMARK   35  A    between atoms: _74  and  _77
REMARK   36  A    between atoms: _77  and  _78
REMARK   37  A    between atoms: _81  and  _83
REMARK   38  A    between atoms: _83  and  _84
REMARK   39  A    between atoms: _83  and  _86
REMARK   40  A    between atoms: _86  and  _87
REMARK   41  A    between atoms: _92  and  _94
REMARK   42  A    between atoms: _94  and  _95
REMARK   43  A    between atoms: _94  and  _97
REMARK   44  A    between atoms: _97  and  _98
REMARK   45  A    between atoms: _103  and  _105
REMARK   46  A    between atoms: _105  and  _106
REMARK   47  A    between atoms: _105  and  _108
REMARK   48  A    between atoms: _108  and  _109
REMARK   49  A    between atoms: _113  and  _114
REMARK   50  A    between atoms: _119  and  _121
REMARK   51  A    between atoms: _121  and  _122
REMARK   52  A    between atoms: _121  and  _124
REMARK   53  A    between atoms: _124  and  _125
REMARK   54  A    between atoms: _135  and  _137
REMARK   55  A    between atoms: _137  and  _138
REMARK   56  A    between atoms: _137  and  _140
REMARK   57  A    between atoms: _140  and  _141
REMARK   58  A    between atoms: _141  and  _142
REMARK   59  A    between atoms: _142  and  _143
REMARK   60  A    between atoms: _152  and  _154
REMARK   61  A    between atoms: _154  and  _155
REMARK   62  A    between atoms: _154  and  _157
REMARK   63  A    between atoms: _157  and  _158
REMARK   64  A    between atoms: _162  and  _163
REMARK   65  A    between atoms: _168  and  _170
REMARK   66  A    between atoms: _170  and  _171
REMARK   67  A    between atoms: _170  and  _173
REMARK   68  A    between atoms: _173  and  _174
REMARK   69  A    between atoms: _176  and  _178
REMARK   70  A    between atoms: _178  and  _179
REMARK   71  A    between atoms: _178  and  _181
REMARK   72  A    between atoms: _181  and  _182
REMARK   73  A    between atoms: _182  and  _183
REMARK   74  A    between atoms: _186  and  _188
REMARK   75  A    between atoms: _188  and  _189
REMARK   76  A    between atoms: _188  and  _191
REMARK   77  A    between atoms: _191  and  _192
REMARK   78  A    between atoms: _195  and  _197
REMARK   79  A    between atoms: _197  and  _198
REMARK   80  A    between atoms: _197  and  _200
REMARK   81  A    between atoms: _200  and  _201
REMARK   82  A    between atoms: _201  and  _202
REMARK   83  A    between atoms: _207  and  _209
REMARK   84  A    between atoms: _209  and  _210
REMARK   85  A    between atoms: _209  and  _212
REMARK   86  A    between atoms: _212  and  _213
REMARK   87  A    between atoms: _218  and  _219
REMARK   88  A    between atoms: _221  and  _223
REMARK   89  A    between atoms: _223  and  _224
REMARK   90  A    between atoms: _223  and  _226
REMARK   91  A    between atoms: _229  and  _231
REMARK   92  A    between atoms: _231  and  _232
REMARK   93  A    between atoms: _231  and  _234
REMARK   94  A    between atoms: _234  and  _235
REMARK   95  A    between atoms: _235  and  _236
REMARK   96  A    between atoms: _236  and  _237
REMARK   97  A    between atoms: _237  and  _238
REMARK   98  A    between atoms: _242  and  _244
REMARK   99  A    between atoms: _244  and  _245
REMARK  100  A    between atoms: _244  and  _247
REMARK  101  A    between atoms: _247  and  _248
REMARK  102  A    between atoms: _248  and  _249
REMARK  103  A    between atoms: _249  and  _250
REMARK  104  A    between atoms: _250  and  _251
REMARK  105  A    between atoms: _255  and  _257
REMARK  106  A    between atoms: _257  and  _258
REMARK  107  A    between atoms: _257  and  _260
REMARK  108  A    between atoms: _260  and  _261
REMARK  109  A    between atoms: _264  and  _266
REMARK  110  A    between atoms: _266  and  _267
REMARK  111  A    between atoms: _266  and  _269
REMARK  112  A    between atoms: _269  and  _270
REMARK  113  A    between atoms: _273  and  _275
REMARK  114  A    between atoms: _275  and  _276
REMARK  115  A    between atoms: _275  and  _278
REMARK  116  A    between atoms: _278  and  _279
REMARK  117  A    between atoms: _279  and  _280
REMARK  118  A    between atoms: _282  and  _284
REMARK  119  A    between atoms: _284  and  _285
REMARK  120  A    between atoms: _287  and  _289
REMARK  121  A    between atoms: _289  and  _290
REMARK  122  A    between atoms: _289  and  _292
REMARK  123  A    between atoms: _292  and  _293
REMARK  124  A    between atoms: _298  and  _300
REMARK  125  A    between atoms: _300  and  _301
REMARK  126  A    between atoms: _300  and  _303
REMARK  127  A    between atoms: _303  and  _304
REMARK  128  A    between atoms: _307  and  _309
REMARK  129  A    between atoms: _309  and  _310
REMARK  130  A    between atoms: _309  and  _312
REMARK  131  A    between atoms: _312  and  _313
REMARK  132  A    between atoms: _316  and  _318
REMARK  133  A    between atoms: _318  and  _319
REMARK  134  A    between atoms: _318  and  _321
REMARK  135  A    between atoms: _321  and  _322
REMARK  136  A    between atoms: _322  and  _323
REMARK  137  A    between atoms: _325  and  _327
REMARK  138  A    between atoms: _327  and  _328
REMARK  139  A    between atoms: _327  and  _330
REMARK  140  A    between atoms: _330  and  _331
REMARK  141  A    between atoms: _331  and  _332
REMARK  142  A    between atoms: _332  and  _333
REMARK  143  A    between atoms: _333  and  _334
REMARK  144  A    between atoms: _338  and  _340
REMARK  145  A    between atoms: _340  and  _341
REMARK  146  A    between atoms: _340  and  _343
REMARK  147  A    between atoms: _343  and  _344
REMARK  148  A    between atoms: _349  and  _351
REMARK  149  A    between atoms: _351  and  _352
REMARK  150  A    between atoms: _351  and  _354
REMARK  151  A    between atoms: _354  and  _355
REMARK  152  A    between atoms: _360  and  _361
REMARK  153  A    between atoms: _363  and  _365
REMARK  154  A    between atoms: _365  and  _366
REMARK  155  A    between atoms: _365  and  _368
REMARK  156  A    between atoms: _368  and  _369
REMARK  157  A    between atoms: _369  and  _370
REMARK  158  A    between atoms: _373  and  _375
REMARK  159  A    between atoms: _375  and  _376
REMARK  160  A    between atoms: _379  and  _381
REMARK  161  A    between atoms: _381  and  _382
REMARK  162  A    between atoms: _381  and  _384
REMARK  163  A    between atoms: _384  and  _385
REMARK  164  A    between atoms: _388  and  _390
REMARK  165  A    between atoms: _390  and  _391
REMARK  166  A    between atoms: _393  and  _395
REMARK  167  A    between atoms: _395  and  _396
REMARK  168  A    between atoms: _395  and  _398
REMARK  169  A    between atoms: _398  and  _399
REMARK  170  A    between atoms: _399  and  _400
REMARK  171  A    between atoms: _400  and  _401
REMARK  172  A    between atoms: _411  and  _412
REMARK  173  A    between atoms: _417  and  _419
REMARK  174  A    between atoms: _419  and  _420
REMARK  175  A    between atoms: _419  and  _422
REMARK  176  A    between atoms: _422  and  _423
REMARK  177  A    between atoms: _427  and  _428
REMARK  178  A    between atoms: _433  and  _435
REMARK  179  A    between atoms: _435  and  _436
REMARK  180  A    between atoms: _438  and  _440
REMARK  181  A    between atoms: _440  and  _441
REMARK  182  A    between atoms: _440  and  _443
REMARK  183  A    between atoms: _443  and  _444
REMARK  184  A    between atoms: _444  and  _445
REMARK  185  A    between atoms: _445  and  _446
REMARK  186  A    between atoms: _455  and  _457
REMARK  187  A    between atoms: _457  and  _458
REMARK  188  A    between atoms: _457  and  _460
REMARK  189  A    between atoms: _460  and  _461
REMARK  190  A    between atoms: _466  and  _468
REMARK  191  A    between atoms: _468  and  _469
REMARK  192  A    between atoms: _468  and  _471
REMARK  193  A    between atoms: _471  and  _472
REMARK  194  A    between atoms: _478  and  _480
REMARK  195  A    between atoms: _480  and  _481
REMARK  196  A    between atoms: _480  and  _483
REMARK  197  A    between atoms: _483  and  _484
REMARK  198  A    between atoms: _487  and  _489
REMARK  199  A    between atoms: _489  and  _490
REMARK  200  A    between atoms: _489  and  _492
REMARK  201  A    between atoms: _492  and  _493
REMARK  202  A    between atoms: _499  and  _501
REMARK  203  A    between atoms: _501  and  _502
REMARK  204  A    between atoms: _504  and  _506
REMARK  205  A    between atoms: _506  and  _507
REMARK  206  A    between atoms: _509  and  _511
REMARK  207  A    between atoms: _511  and  _512
REMARK  208  A    between atoms: _511  and  _514
REMARK  209  A    between atoms: _514  and  _515
REMARK  210  A    between atoms: _520  and  _521
REMARK  211  A    between atoms: _523  and  _525
REMARK  212  A    between atoms: _525  and  _526
REMARK  213  A    between atoms: _525  and  _528
REMARK  214  A    between atoms: _528  and  _529
REMARK  215  A    between atoms: _534  and  _535
REMARK  216  A    between atoms: _537  and  _539
REMARK  217  A    between atoms: _539  and  _540
REMARK  218  A    between atoms: _539  and  _542
REMARK  219  A    between atoms: _542  and  _543
REMARK  220  A    between atoms: _546  and  _548
REMARK  221  A    between atoms: _548  and  _549
REMARK  222  A    between atoms: _548  and  _551
REMARK  223  A    between atoms: _551  and  _552
REMARK  224  A    between atoms: _555  and  _557
REMARK  225  A    between atoms: _557  and  _558
REMARK  226  A    between atoms: _557  and  _560
REMARK  227  A    between atoms: _560  and  _561
REMARK  228  A    between atoms: _561  and  _562
REMARK  229  A    between atoms: _562  and  _563
REMARK  230  A    between atoms: _563  and  _564
REMARK  231  A    between atoms: _568  and  _570
REMARK  232  A    between atoms: _570  and  _571
REMARK  233  A    between atoms: _570  and  _573
REMARK  234  A    between atoms: _573  and  _574
REMARK  235  A    between atoms: _577  and  _579
REMARK  236  A    between atoms: _579  and  _580
REMARK  237  A    between atoms: _579  and  _582
REMARK  238  A    between atoms: _582  and  _583
REMARK  239  A    between atoms: _586  and  _588
REMARK  240  A    between atoms: _588  and  _589
REMARK  241  A    between atoms: _588  and  _591
REMARK  242  A    between atoms: _591  and  _592
REMARK  243  A    between atoms: _597  and  _598
REMARK  244  A    between atoms: _600  and  _602
REMARK  245  A    between atoms: _602  and  _603
REMARK  246  A    between atoms: _602  and  _605
REMARK  247  A    between atoms: _605  and  _606
REMARK                            x       y       z     vdW  Elec       q    Type
REMARK                         _______ _______ _______ _____ _____    ______ ____
ROOT
ATOM      1  O   HOH     1       8.273 -25.535  -6.304  0.00  0.00    +0.000 OA
ENDROOT
TORSDOF 0
REMARK  Name = ../refined-set-2016/4elg/4elg_pocket.pdb
REMARK  247 active torsions:
REMARK  status: ('A' for Active; 'I' for Inactive)
REMARK    1  A    between atoms: _1  and  _3
REMARK    2  A    between atoms: _3  and  _4
REMARK    3  A    between atoms: _3  and  _6
REMARK    4  A    between atoms: _6  and  _7
REMARK    5  A    between atoms: _13  and  _15
REMARK    6  A    between atoms: _15  and  _16
REMARK    7  A    between atoms: _15  and  _18
REMARK    8  A    between atoms: _18  and  _19
REMARK    9  A    between atoms: _19  and  _20
REMARK   10  A    between atoms: _22  and  _24
REMARK   11  A    between atoms: _24  and  _25
REMARK   12  A    between atoms: _24  and  _27
REMARK   13  A    between atoms: _30  and  _32
REMARK   14  A    between atoms: _32  and  _33
REMARK   15  A    between atoms: _36  and  _38
REMARK   16  A    between atoms: _38  and  _39
REMARK   17  A    between atoms: _38  and  _41
REMARK   18  A    between atoms: _41  and  _42
REMARK   19  A    between atoms: _42  and  _43
REMARK   20  A    between atoms: _45  and  _47
REMARK   21  A    between atoms: _47  and  _48
REMARK   22  A    between atoms: _47  and  _50
REMARK   23  A    between atoms: _50  and  _51
REMARK   24  A    between atoms: _54  and  _56
REMARK   25  A    between atoms: _56  and  _57
REMARK   26  A    between atoms: _59  and  _61
REMARK   27  A    between atoms: _61  and  _62
REMARK   28  A    between atoms: _61  and  _64
REMARK   29  A    between atoms: _64  and  _65
REMARK   30  A    between atoms: _65  and  _66
REMARK   31  A    between atoms: _66  and  _67
REMARK   32  A    between atoms: _67  and  _68
REMARK   33  A    between atoms: _72  and  _74
REMARK   34  A    between atoms: _74  and  _75
REMARK   35  A    between atoms: _74  and  _77
REMARK   36  A    between atoms: _77  and  _78
REMARK   37  A    between atoms: _81  and  _83
REMARK   38  A    between atoms: _83  and  _84
REMARK   39  A    between atoms: _83  and  _86
REMARK   40  A    between atoms: _86  and  _87
REMARK   41  A    between atoms: _92  and  _94
REMARK   42  A    between atoms: _94  and  _95
REMARK   43  A    between atoms: _94  and  _97
REMARK   44  A    between atoms: _97  and  _98
REMARK   45  A    between atoms: _103  and  _105
REMARK   46  A    between atoms: _105  and  _106
REMARK   47  A    between atoms: _105  and  _108
REMARK   48  A    between atoms: _108  and  _109
REMARK   49  A    between atoms: _113  and  _114
REMARK   50  A    between atoms: _119  and  _121
REMARK   51  A    between atoms: _121  and  _122
REMARK   52  A    between atoms: _121  and  _124
REMARK   53  A    between atoms: _124  and  _125
REMARK   54  A    between atoms: _135  and  _137
REMARK   55  A    between atoms: _137  and  _138
REMARK   56  A    between atoms: _137  and  _140
REMARK   57  A    between atoms: _140  and  _141
REMARK   58  A    between atoms: _141  and  _142
REMARK   59  A    between atoms: _142  and  _143
REMARK   60  A    between atoms: _152  and  _154
REMARK   61  A    between atoms: _154  and  _155
REMARK   62  A    between atoms: _154  and  _157
REMARK   63  A    between atoms: _157  and  _158
REMARK   64  A    between atoms: _162  and  _163
REMARK   65  A    between atoms: _168  and  _170
REMARK   66  A    between atoms: _170  and  _171
REMARK   67  A    between atoms: _170  and  _173
REMARK   68  A    between atoms: _173  and  _174
REMARK   69  A    between atoms: _176  and  _178
REMARK   70  A    between atoms: _178  and  _179
REMARK   71  A    between atoms: _178  and  _181
REMARK   72  A    between atoms: _181  and  _182
REMARK   73  A    between atoms: _182  and  _183
REMARK   74  A    between atoms: _186  and  _188
REMARK   75  A    between atoms: _188  and  _189
REMARK   76  A    between atoms: _188  and  _191
REMARK   77  A    between atoms: _191  and  _192
REMARK   78  A    between atoms: _195  and  _197
REMARK   79  A    between atoms: _197  and  _198
REMARK   80  A    between atoms: _197  and  _200
REMARK   81  A    between atoms: _200  and  _201
REMARK   82  A    between atoms: _201  and  _202
REMARK   83  A    between atoms: _207  and  _209
REMARK   84  A    between atoms: _209  and  _210
REMARK   85  A    between atoms: _209  and  _212
REMARK   86  A    between atoms: _212  and  _213
REMARK   87  A    between atoms: _218  and  _219
REMARK   88  A    between atoms: _221  and  _223
REMARK   89  A    between atoms: _223  and  _224
REMARK   90  A    between atoms: _223  and  _226
REMARK   91  A    between atoms: _229  and  _231
REMARK   92  A    between atoms: _231  and  _232
REMARK   93  A    between atoms: _231  and  _234
REMARK   94  A    between atoms: _234  and  _235
REMARK   95  A    between atoms: _235  and  _236
REMARK   96  A    between atoms: _236  and  _237
REMARK   97  A    between atoms: _237  and  _238
REMARK   98  A    between atoms: _242  and  _244
REMARK   99  A    between atoms: _244  and  _245
REMARK  100  A    between atoms: _244  and  _247
REMARK  101  A    between atoms: _247  and  _248
REMARK  102  A    between atoms: _248  and  _249
REMARK  103  A    between atoms: _249  and  _250
REMARK  104  A    between atoms: _250  and  _251
REMARK  105  A    between atoms: _255  and  _257
REMARK  106  A    between atoms: _257  and  _258
REMARK  107  A    between atoms: _257  and  _260
REMARK  108  A    between atoms: _260  and  _261
REMARK  109  A    between atoms: _264  and  _266
REMARK  110  A    between atoms: _266  and  _267
REMARK  111  A    between atoms: _266  and  _269
REMARK  112  A    between atoms: _269  and  _270
REMARK  113  A    between atoms: _273  and  _275
REMARK  114  A    between atoms: _275  and  _276
REMARK  115  A    between atoms: _275  and  _278
REMARK  116  A    between atoms: _278  and  _279
REMARK  117  A    between atoms: _279  and  _280
REMARK  118  A    between atoms: _282  and  _284
REMARK  119  A    between atoms: _284  and  _285
REMARK  120  A    between atoms: _287  and  _289
REMARK  121  A    between atoms: _289  and  _290
REMARK  122  A    between atoms: _289  and  _292
REMARK  123  A    between atoms: _292  and  _293
REMARK  124  A    between atoms: _298  and  _300
REMARK  125  A    between atoms: _300  and  _301
REMARK  126  A    between atoms: _300  and  _303
REMARK  127  A    between atoms: _303  and  _304
REMARK  128  A    between atoms: _307  and  _309
REMARK  129  A    between atoms: _309  and  _310
REMARK  130  A    between atoms: _309  and  _312
REMARK  131  A    between atoms: _312  and  _313
REMARK  132  A    between atoms: _316  and  _318
REMARK  133  A    between atoms: _318  and  _319
REMARK  134  A    between atoms: _318  and  _321
REMARK  135  A    between atoms: _321  and  _322
REMARK  136  A    between atoms: _322  and  _323
REMARK  137  A    between atoms: _325  and  _327
REMARK  138  A    between atoms: _327  and  _328
REMARK  139  A    between atoms: _327  and  _330
REMARK  140  A    between atoms: _330  and  _331
REMARK  141  A    between atoms: _331  and  _332
REMARK  142  A    between atoms: _332  and  _333
REMARK  143  A    between atoms: _333  and  _334
REMARK  144  A    between atoms: _338  and  _340
REMARK  145  A    between atoms: _340  and  _341
REMARK  146  A    between atoms: _340  and  _343
REMARK  147  A    between atoms: _343  and  _344
REMARK  148  A    between atoms: _349  and  _351
REMARK  149  A    between atoms: _351  and  _352
REMARK  150  A    between atoms: _351  and  _354
REMARK  151  A    between atoms: _354  and  _355
REMARK  152  A    between atoms: _360  and  _361
REMARK  153  A    between atoms: _363  and  _365
REMARK  154  A    between atoms: _365  and  _366
REMARK  155  A    between atoms: _365  and  _368
REMARK  156  A    between atoms: _368  and  _369
REMARK  157  A    between atoms: _369  and  _370
REMARK  158  A    between atoms: _373  and  _375
REMARK  159  A    between atoms: _375  and  _376
REMARK  160  A    between atoms: _379  and  _381
REMARK  161  A    between atoms: _381  and  _382
REMARK  162  A    between atoms: _381  and  _384
REMARK  163  A    between atoms: _384  and  _385
REMARK  164  A    between atoms: _388  and  _390
REMARK  165  A    between atoms: _390  and  _391
REMARK  166  A    between atoms: _393  and  _395
REMARK  167  A    between atoms: _395  and  _396
REMARK  168  A    between atoms: _395  and  _398
REMARK  169  A    between atoms: _398  and  _399
REMARK  170  A    between atoms: _399  and  _400
REMARK  171  A    between atoms: _400  and  _401
REMARK  172  A    between atoms: _411  and  _412
REMARK  173  A    between atoms: _417  and  _419
REMARK  174  A    between atoms: _419  and  _420
REMARK  175  A    between atoms: _419  and  _422
REMARK  176  A    between atoms: _422  and  _423
REMARK  177  A    between atoms: _427  and  _428
REMARK  178  A    between atoms: _433  and  _435
REMARK  179  A    between atoms: _435  and  _436
REMARK  180  A    between atoms: _438  and  _440
REMARK  181  A    between atoms: _440  and  _441
REMARK  182  A    between atoms: _440  and  _443
REMARK  183  A    between atoms: _443  and  _444
REMARK  184  A    between atoms: _444  and  _445
REMARK  185  A    between atoms: _445  and  _446
REMARK  186  A    between atoms: _455  and  _457
REMARK  187  A    between atoms: _457  and  _458
REMARK  188  A    between atoms: _457  and  _460
REMARK  189  A    between atoms: _460  and  _461
REMARK  190  A    between atoms: _466  and  _468
REMARK  191  A    between atoms: _468  and  _469
REMARK  192  A    between atoms: _468  and  _471
REMARK  193  A    between atoms: _471  and  _472
REMARK  194  A    between atoms: _478  and  _480
REMARK  195  A    between atoms: _480  and  _481
REMARK  196  A    between atoms: _480  and  _483
REMARK  197  A    between atoms: _483  and  _484
REMARK  198  A    between atoms: _487  and  _489
REMARK  199  A    between atoms: _489  and  _490
REMARK  200  A    between atoms: _489  and  _492
REMARK  201  A    between atoms: _492  and  _493
REMARK  202  A    between atoms: _499  and  _501
REMARK  203  A    between atoms: _501  and  _502
REMARK  204  A    between atoms: _504  and  _506
REMARK  205  A    between atoms: _506  and  _507
REMARK  206  A    between atoms: _509  and  _511
REMARK  207  A    between atoms: _511  and  _512
REMARK  208  A    between atoms: _511  and  _514
REMARK  209  A    between atoms: _514  and  _515
REMARK  210  A    between atoms: _520  and  _521
REMARK  211  A    between atoms: _523  and  _525
REMARK  212  A    between atoms: _525  and  _526
REMARK  213  A    between atoms: _525  and  _528
REMARK  214  A    between atoms: _528  and  _529
REMARK  215  A    between atoms: _534  and  _535
REMARK  216  A    between atoms: _537  and  _539
REMARK  217  A    between atoms: _539  and  _540
REMARK  218  A    between atoms: _539  and  _542
REMARK  219  A    between atoms: _542  and  _543
REMARK  220  A    between atoms: _546  and  _548
REMARK  221  A    between atoms: _548  and  _549
REMARK  222  A    between atoms: _548  and  _551
REMARK  223  A    between atoms: _551  and  _552
REMARK  224  A    between atoms: _555  and  _557
REMARK  225  A    between atoms: _557  and  _558
REMARK  226  A    between atoms: _557  and  _560
REMARK  227  A    between atoms: _560  and  _561
REMARK  228  A    between atoms: _561  and  _562
REMARK  229  A    between atoms: _562  and  _563
REMARK  230  A    between atoms: _563  and  _564
REMARK  231  A    between atoms: _568  and  _570
REMARK  232  A    between atoms: _570  and  _571
REMARK  233  A    between atoms: _570  and  _573
REMARK  234  A    between atoms: _573  and  _574
REMARK  235  A    between atoms: _577  and  _579
REMARK  236  A    between atoms: _579  and  _580
REMARK  237  A    between atoms: _579  and  _582
REMARK  238  A    between atoms: _582  and  _583
REMARK  239  A    between atoms: _586  and  _588
REMARK  240  A    between atoms: _588  and  _589
REMARK  241  A    between atoms: _588  and  _591
REMARK  242  A    between atoms: _591  and  _592
REMARK  243  A    between atoms: _597  and  _598
REMARK  244  A    between atoms: _600  and  _602
REMARK  245  A    between atoms: _602  and  _603
REMARK  246  A    between atoms: _602  and  _605
REMARK  247  A    between atoms: _605  and  _606
REMARK                            x       y       z     vdW  Elec       q    Type
REMARK                         _______ _______ _______ _____ _____    ______ ____
ROOT
ATOM      1  O   HOH     1      15.999 -41.407  -5.401  0.00  0.00    +0.000 OA
ENDROOT
TORSDOF 0
REMARK  Name = ../refined-set-2016/4elg/4elg_pocket.pdb
REMARK  247 active torsions:
REMARK  status: ('A' for Active; 'I' for Inactive)
REMARK    1  A    between atoms: _1  and  _3
REMARK    2  A    between atoms: _3  and  _4
REMARK    3  A    between atoms: _3  and  _6
REMARK    4  A    between atoms: _6  and  _7
REMARK    5  A    between atoms: _13  and  _15
REMARK    6  A    between atoms: _15  and  _16
REMARK    7  A    between atoms: _15  and  _18
REMARK    8  A    between atoms: _18  and  _19
REMARK    9  A    between atoms: _19  and  _20
REMARK   10  A    between atoms: _22  and  _24
REMARK   11  A    between atoms: _24  and  _25
REMARK   12  A    between atoms: _24  and  _27
REMARK   13  A    between atoms: _30  and  _32
REMARK   14  A    between atoms: _32  and  _33
REMARK   15  A    between atoms: _36  and  _38
REMARK   16  A    between atoms: _38  and  _39
REMARK   17  A    between atoms: _38  and  _41
REMARK   18  A    between atoms: _41  and  _42
REMARK   19  A    between atoms: _42  and  _43
REMARK   20  A    between atoms: _45  and  _47
REMARK   21  A    between atoms: _47  and  _48
REMARK   22  A    between atoms: _47  and  _50
REMARK   23  A    between atoms: _50  and  _51
REMARK   24  A    between atoms: _54  and  _56
REMARK   25  A    between atoms: _56  and  _57
REMARK   26  A    between atoms: _59  and  _61
REMARK   27  A    between atoms: _61  and  _62
REMARK   28  A    between atoms: _61  and  _64
REMARK   29  A    between atoms: _64  and  _65
REMARK   30  A    between atoms: _65  and  _66
REMARK   31  A    between atoms: _66  and  _67
REMARK   32  A    between atoms: _67  and  _68
REMARK   33  A    between atoms: _72  and  _74
REMARK   34  A    between atoms: _74  and  _75
REMARK   35  A    between atoms: _74  and  _77
REMARK   36  A    between atoms: _77  and  _78
REMARK   37  A    between atoms: _81  and  _83
REMARK   38  A    between atoms: _83  and  _84
REMARK   39  A    between atoms: _83  and  _86
REMARK   40  A    between atoms: _86  and  _87
REMARK   41  A    between atoms: _92  and  _94
REMARK   42  A    between atoms: _94  and  _95
REMARK   43  A    between atoms: _94  and  _97
REMARK   44  A    between atoms: _97  and  _98
REMARK   45  A    between atoms: _103  and  _105
REMARK   46  A    between atoms: _105  and  _106
REMARK   47  A    between atoms: _105  and  _108
REMARK   48  A    between atoms: _108  and  _109
REMARK   49  A    between atoms: _113  and  _114
REMARK   50  A    between atoms: _119  and  _121
REMARK   51  A    between atoms: _121  and  _122
REMARK   52  A    between atoms: _121  and  _124
REMARK   53  A    between atoms: _124  and  _125
REMARK   54  A    between atoms: _135  and  _137
REMARK   55  A    between atoms: _137  and  _138
REMARK   56  A    between atoms: _137  and  _140
REMARK   57  A    between atoms: _140  and  _141
REMARK   58  A    between atoms: _141  and  _142
REMARK   59  A    between atoms: _142  and  _143
REMARK   60  A    between atoms: _152  and  _154
REMARK   61  A    between atoms: _154  and  _155
REMARK   62  A    between atoms: _154  and  _157
REMARK   63  A    between atoms: _157  and  _158
REMARK   64  A    between atoms: _162  and  _163
REMARK   65  A    between atoms: _168  and  _170
REMARK   66  A    between atoms: _170  and  _171
REMARK   67  A    between atoms: _170  and  _173
REMARK   68  A    between atoms: _173  and  _174
REMARK   69  A    between atoms: _176  and  _178
REMARK   70  A    between atoms: _178  and  _179
REMARK   71  A    between atoms: _178  and  _181
REMARK   72  A    between atoms: _181  and  _182
REMARK   73  A    between atoms: _182  and  _183
REMARK   74  A    between atoms: _186  and  _188
REMARK   75  A    between atoms: _188  and  _189
REMARK   76  A    between atoms: _188  and  _191
REMARK   77  A    between atoms: _191  and  _192
REMARK   78  A    between atoms: _195  and  _197
REMARK   79  A    between atoms: _197  and  _198
REMARK   80  A    between atoms: _197  and  _200
REMARK   81  A    between atoms: _200  and  _201
REMARK   82  A    between atoms: _201  and  _202
REMARK   83  A    between atoms: _207  and  _209
REMARK   84  A    between atoms: _209  and  _210
REMARK   85  A    between atoms: _209  and  _212
REMARK   86  A    between atoms: _212  and  _213
REMARK   87  A    between atoms: _218  and  _219
REMARK   88  A    between atoms: _221  and  _223
REMARK   89  A    between atoms: _223  and  _224
REMARK   90  A    between atoms: _223  and  _226
REMARK   91  A    between atoms: _229  and  _231
REMARK   92  A    between atoms: _231  and  _232
REMARK   93  A    between atoms: _231  and  _234
REMARK   94  A    between atoms: _234  and  _235
REMARK   95  A    between atoms: _235  and  _236
REMARK   96  A    between atoms: _236  and  _237
REMARK   97  A    between atoms: _237  and  _238
REMARK   98  A    between atoms: _242  and  _244
REMARK   99  A    between atoms: _244  and  _245
REMARK  100  A    between atoms: _244  and  _247
REMARK  101  A    between atoms: _247  and  _248
REMARK  102  A    between atoms: _248  and  _249
REMARK  103  A    between atoms: _249  and  _250
REMARK  104  A    between atoms: _250  and  _251
REMARK  105  A    between atoms: _255  and  _257
REMARK  106  A    between atoms: _257  and  _258
REMARK  107  A    between atoms: _257  and  _260
REMARK  108  A    between atoms: _260  and  _261
REMARK  109  A    between atoms: _264  and  _266
REMARK  110  A    between atoms: _266  and  _267
REMARK  111  A    between atoms: _266  and  _269
REMARK  112  A    between atoms: _269  and  _270
REMARK  113  A    between atoms: _273  and  _275
REMARK  114  A    between atoms: _275  and  _276
REMARK  115  A    between atoms: _275  and  _278
REMARK  116  A    between atoms: _278  and  _279
REMARK  117  A    between atoms: _279  and  _280
REMARK  118  A    between atoms: _282  and  _284
REMARK  119  A    between atoms: _284  and  _285
REMARK  120  A    between atoms: _287  and  _289
REMARK  121  A    between atoms: _289  and  _290
REMARK  122  A    between atoms: _289  and  _292
REMARK  123  A    between atoms: _292  and  _293
REMARK  124  A    between atoms: _298  and  _300
REMARK  125  A    between atoms: _300  and  _301
REMARK  126  A    between atoms: _300  and  _303
REMARK  127  A    between atoms: _303  and  _304
REMARK  128  A    between atoms: _307  and  _309
REMARK  129  A    between atoms: _309  and  _310
REMARK  130  A    between atoms: _309  and  _312
REMARK  131  A    between atoms: _312  and  _313
REMARK  132  A    between atoms: _316  and  _318
REMARK  133  A    between atoms: _318  and  _319
REMARK  134  A    between atoms: _318  and  _321
REMARK  135  A    between atoms: _321  and  _322
REMARK  136  A    between atoms: _322  and  _323
REMARK  137  A    between atoms: _325  and  _327
REMARK  138  A    between atoms: _327  and  _328
REMARK  139  A    between atoms: _327  and  _330
REMARK  140  A    between atoms: _330  and  _331
REMARK  141  A    between atoms: _331  and  _332
REMARK  142  A    between atoms: _332  and  _333
REMARK  143  A    between atoms: _333  and  _334
REMARK  144  A    between atoms: _338  and  _340
REMARK  145  A    between atoms: _340  and  _341
REMARK  146  A    between atoms: _340  and  _343
REMARK  147  A    between atoms: _343  and  _344
REMARK  148  A    between atoms: _349  and  _351
REMARK  149  A    between atoms: _351  and  _352
REMARK  150  A    between atoms: _351  and  _354
REMARK  151  A    between atoms: _354  and  _355
REMARK  152  A    between atoms: _360  and  _361
REMARK  153  A    between atoms: _363  and  _365
REMARK  154  A    between atoms: _365  and  _366
REMARK  155  A    between atoms: _365  and  _368
REMARK  156  A    between atoms: _368  and  _369
REMARK  157  A    between atoms: _369  and  _370
REMARK  158  A    between atoms: _373  and  _375
REMARK  159  A    between atoms: _375  and  _376
REMARK  160  A    between atoms: _379  and  _381
REMARK  161  A    between atoms: _381  and  _382
REMARK  162  A    between atoms: _381  and  _384
REMARK  163  A    between atoms: _384  and  _385
REMARK  164  A    between atoms: _388  and  _390
REMARK  165  A    between atoms: _390  and  _391
REMARK  166  A    between atoms: _393  and  _395
REMARK  167  A    between atoms: _395  and  _396
REMARK  168  A    between atoms: _395  and  _398
REMARK  169  A    between atoms: _398  and  _399
REMARK  170  A    between atoms: _399  and  _400
REMARK  171  A    between atoms: _400  and  _401
REMARK  172  A    between atoms: _411  and  _412
REMARK  173  A    between atoms: _417  and  _419
REMARK  174  A    between atoms: _419  and  _420
REMARK  175  A    between atoms: _419  and  _422
REMARK  176  A    between atoms: _422  and  _423
REMARK  177  A    between atoms: _427  and  _428
REMARK  178  A    between atoms: _433  and  _435
REMARK  179  A    between atoms: _435  and  _436
REMARK  180  A    between atoms: _438  and  _440
REMARK  181  A    between atoms: _440  and  _441
REMARK  182  A    between atoms: _440  and  _443
REMARK  183  A    between atoms: _443  and  _444
REMARK  184  A    between atoms: _444  and  _445
REMARK  185  A    between atoms: _445  and  _446
REMARK  186  A    between atoms: _455  and  _457
REMARK  187  A    between atoms: _457  and  _458
REMARK  188  A    between atoms: _457  and  _460
REMARK  189  A    between atoms: _460  and  _461
REMARK  190  A    between atoms: _466  and  _468
REMARK  191  A    between atoms: _468  and  _469
REMARK  192  A    between atoms: _468  and  _471
REMARK  193  A    between atoms: _471  and  _472
REMARK  194  A    between atoms: _478  and  _480
REMARK  195  A    between atoms: _480  and  _481
REMARK  196  A    between atoms: _480  and  _483
REMARK  197  A    between atoms: _483  and  _484
REMARK  198  A    between atoms: _487  and  _489
REMARK  199  A    between atoms: _489  and  _490
REMARK  200  A    between atoms: _489  and  _492
REMARK  201  A    between atoms: _492  and  _493
REMARK  202  A    between atoms: _499  and  _501
REMARK  203  A    between atoms: _501  and  _502
REMARK  204  A    between atoms: _504  and  _506
REMARK  205  A    between atoms: _506  and  _507
REMARK  206  A    between atoms: _509  and  _511
REMARK  207  A    between atoms: _511  and  _512
REMARK  208  A    between atoms: _511  and  _514
REMARK  209  A    between atoms: _514  and  _515
REMARK  210  A    between atoms: _520  and  _521
REMARK  211  A    between atoms: _523  and  _525
REMARK  212  A    between atoms: _525  and  _526
REMARK  213  A    between atoms: _525  and  _528
REMARK  214  A    between atoms: _528  and  _529
REMARK  215  A    between atoms: _534  and  _535
REMARK  216  A    between atoms: _537  and  _539
REMARK  217  A    between atoms: _539  and  _540
REMARK  218  A    between atoms: _539  and  _542
REMARK  219  A    between atoms: _542  and  _543
REMARK  220  A    between atoms: _546  and  _548
REMARK  221  A    between atoms: _548  and  _549
REMARK  222  A    between atoms: _548  and  _551
REMARK  223  A    between atoms: _551  and  _552
REMARK  224  A    between atoms: _555  and  _557
REMARK  225  A    between atoms: _557  and  _558
REMARK  226  A    between atoms: _557  and  _560
REMARK  227  A    between atoms: _560  and  _561
REMARK  228  A    between atoms: _561  and  _562
REMARK  229  A    between atoms: _562  and  _563
REMARK  230  A    between atoms: _563  and  _564
REMARK  231  A    between atoms: _568  and  _570
REMARK  232  A    between atoms: _570  and  _571
REMARK  233  A    between atoms: _570  and  _573
REMARK  234  A    between atoms: _573  and  _574
REMARK  235  A    between atoms: _577  and  _579
REMARK  236  A    between atoms: _579  and  _580
REMARK  237  A    between atoms: _579  and  _582
REMARK  238  A    between atoms: _582  and  _583
REMARK  239  A    between atoms: _586  and  _588
REMARK  240  A    between atoms: _588  and  _589
REMARK  241  A    between atoms: _588  and  _591
REMARK  242  A    between atoms: _591  and  _592
REMARK  243  A    between atoms: _597  and  _598
REMARK  244  A    between atoms: _600  and  _602
REMARK  245  A    between atoms: _602  and  _603
REMARK  246  A    between atoms: _602  and  _605
REMARK  247  A    between atoms: _605  and  _606
REMARK                            x       y       z     vdW  Elec       q    Type
REMARK                         _______ _______ _______ _____ _____    ______ ____
ROOT
ATOM      1  O   HOH     1       7.468 -22.788  -1.942  0.00  0.00    +0.000 OA
ENDROOT
TORSDOF 0
REMARK  Name = ../refined-set-2016/4elg/4elg_pocket.pdb
REMARK  247 active torsions:
REMARK  status: ('A' for Active; 'I' for Inactive)
REMARK    1  A    between atoms: _1  and  _3
REMARK    2  A    between atoms: _3  and  _4
REMARK    3  A    between atoms: _3  and  _6
REMARK    4  A    between atoms: _6  and  _7
REMARK    5  A    between atoms: _13  and  _15
REMARK    6  A    between atoms: _15  and  _16
REMARK    7  A    between atoms: _15  and  _18
REMARK    8  A    between atoms: _18  and  _19
REMARK    9  A    between atoms: _19  and  _20
REMARK   10  A    between atoms: _22  and  _24
REMARK   11  A    between atoms: _24  and  _25
REMARK   12  A    between atoms: _24  and  _27
REMARK   13  A    between atoms: _30  and  _32
REMARK   14  A    between atoms: _32  and  _33
REMARK   15  A    between atoms: _36  and  _38
REMARK   16  A    between atoms: _38  and  _39
REMARK   17  A    between atoms: _38  and  _41
REMARK   18  A    between atoms: _41  and  _42
REMARK   19  A    between atoms: _42  and  _43
REMARK   20  A    between atoms: _45  and  _47
REMARK   21  A    between atoms: _47  and  _48
REMARK   22  A    between atoms: _47  and  _50
REMARK   23  A    between atoms: _50  and  _51
REMARK   24  A    between atoms: _54  and  _56
REMARK   25  A    between atoms: _56  and  _57
REMARK   26  A    between atoms: _59  and  _61
REMARK   27  A    between atoms: _61  and  _62
REMARK   28  A    between atoms: _61  and  _64
REMARK   29  A    between atoms: _64  and  _65
REMARK   30  A    between atoms: _65  and  _66
REMARK   31  A    between atoms: _66  and  _67
REMARK   32  A    between atoms: _67  and  _68
REMARK   33  A    between atoms: _72  and  _74
REMARK   34  A    between atoms: _74  and  _75
REMARK   35  A    between atoms: _74  and  _77
REMARK   36  A    between atoms: _77  and  _78
REMARK   37  A    between atoms: _81  and  _83
REMARK   38  A    between atoms: _83  and  _84
REMARK   39  A    between atoms: _83  and  _86
REMARK   40  A    between atoms: _86  and  _87
REMARK   41  A    between atoms: _92  and  _94
REMARK   42  A    between atoms: _94  and  _95
REMARK   43  A    between atoms: _94  and  _97
REMARK   44  A    between atoms: _97  and  _98
REMARK   45  A    between atoms: _103  and  _105
REMARK   46  A    between atoms: _105  and  _106
REMARK   47  A    between atoms: _105  and  _108
REMARK   48  A    between atoms: _108  and  _109
REMARK   49  A    between atoms: _113  and  _114
REMARK   50  A    between atoms: _119  and  _121
REMARK   51  A    between atoms: _121  and  _122
REMARK   52  A    between atoms: _121  and  _124
REMARK   53  A    between atoms: _124  and  _125
REMARK   54  A    between atoms: _135  and  _137
REMARK   55  A    between atoms: _137  and  _138
REMARK   56  A    between atoms: _137  and  _140
REMARK   57  A    between atoms: _140  and  _141
REMARK   58  A    between atoms: _141  and  _142
REMARK   59  A    between atoms: _142  and  _143
REMARK   60  A    between atoms: _152  and  _154
REMARK   61  A    between atoms: _154  and  _155
REMARK   62  A    between atoms: _154  and  _157
REMARK   63  A    between atoms: _157  and  _158
REMARK   64  A    between atoms: _162  and  _163
REMARK   65  A    between atoms: _168  and  _170
REMARK   66  A    between atoms: _170  and  _171
REMARK   67  A    between atoms: _170  and  _173
REMARK   68  A    between atoms: _173  and  _174
REMARK   69  A    between atoms: _176  and  _178
REMARK   70  A    between atoms: _178  and  _179
REMARK   71  A    between atoms: _178  and  _181
REMARK   72  A    between atoms: _181  and  _182
REMARK   73  A    between atoms: _182  and  _183
REMARK   74  A    between atoms: _186  and  _188
REMARK   75  A    between atoms: _188  and  _189
REMARK   76  A    between atoms: _188  and  _191
REMARK   77  A    between atoms: _191  and  _192
REMARK   78  A    between atoms: _195  and  _197
REMARK   79  A    between atoms: _197  and  _198
REMARK   80  A    between atoms: _197  and  _200
REMARK   81  A    between atoms: _200  and  _201
REMARK   82  A    between atoms: _201  and  _202
REMARK   83  A    between atoms: _207  and  _209
REMARK   84  A    between atoms: _209  and  _210
REMARK   85  A    between atoms: _209  and  _212
REMARK   86  A    between atoms: _212  and  _213
REMARK   87  A    between atoms: _218  and  _219
REMARK   88  A    between atoms: _221  and  _223
REMARK   89  A    between atoms: _223  and  _224
REMARK   90  A    between atoms: _223  and  _226
REMARK   91  A    between atoms: _229  and  _231
REMARK   92  A    between atoms: _231  and  _232
REMARK   93  A    between atoms: _231  and  _234
REMARK   94  A    between atoms: _234  and  _235
REMARK   95  A    between atoms: _235  and  _236
REMARK   96  A    between atoms: _236  and  _237
REMARK   97  A    between atoms: _237  and  _238
REMARK   98  A    between atoms: _242  and  _244
REMARK   99  A    between atoms: _244  and  _245
REMARK  100  A    between atoms: _244  and  _247
REMARK  101  A    between atoms: _247  and  _248
REMARK  102  A    between atoms: _248  and  _249
REMARK  103  A    between atoms: _249  and  _250
REMARK  104  A    between atoms: _250  and  _251
REMARK  105  A    between atoms: _255  and  _257
REMARK  106  A    between atoms: _257  and  _258
REMARK  107  A    between atoms: _257  and  _260
REMARK  108  A    between atoms: _260  and  _261
REMARK  109  A    between atoms: _264  and  _266
REMARK  110  A    between atoms: _266  and  _267
REMARK  111  A    between atoms: _266  and  _269
REMARK  112  A    between atoms: _269  and  _270
REMARK  113  A    between atoms: _273  and  _275
REMARK  114  A    between atoms: _275  and  _276
REMARK  115  A    between atoms: _275  and  _278
REMARK  116  A    between atoms: _278  and  _279
REMARK  117  A    between atoms: _279  and  _280
REMARK  118  A    between atoms: _282  and  _284
REMARK  119  A    between atoms: _284  and  _285
REMARK  120  A    between atoms: _287  and  _289
REMARK  121  A    between atoms: _289  and  _290
REMARK  122  A    between atoms: _289  and  _292
REMARK  123  A    between atoms: _292  and  _293
REMARK  124  A    between atoms: _298  and  _300
REMARK  125  A    between atoms: _300  and  _301
REMARK  126  A    between atoms: _300  and  _303
REMARK  127  A    between atoms: _303  and  _304
REMARK  128  A    between atoms: _307  and  _309
REMARK  129  A    between atoms: _309  and  _310
REMARK  130  A    between atoms: _309  and  _312
REMARK  131  A    between atoms: _312  and  _313
REMARK  132  A    between atoms: _316  and  _318
REMARK  133  A    between atoms: _318  and  _319
REMARK  134  A    between atoms: _318  and  _321
REMARK  135  A    between atoms: _321  and  _322
REMARK  136  A    between atoms: _322  and  _323
REMARK  137  A    between atoms: _325  and  _327
REMARK  138  A    between atoms: _327  and  _328
REMARK  139  A    between atoms: _327  and  _330
REMARK  140  A    between atoms: _330  and  _331
REMARK  141  A    between atoms: _331  and  _332
REMARK  142  A    between atoms: _332  and  _333
REMARK  143  A    between atoms: _333  and  _334
REMARK  144  A    between atoms: _338  and  _340
REMARK  145  A    between atoms: _340  and  _341
REMARK  146  A    between atoms: _340  and  _343
REMARK  147  A    between atoms: _343  and  _344
REMARK  148  A    between atoms: _349  and  _351
REMARK  149  A    between atoms: _351  and  _352
REMARK  150  A    between atoms: _351  and  _354
REMARK  151  A    between atoms: _354  and  _355
REMARK  152  A    between atoms: _360  and  _361
REMARK  153  A    between atoms: _363  and  _365
REMARK  154  A    between atoms: _365  and  _366
REMARK  155  A    between atoms: _365  and  _368
REMARK  156  A    between atoms: _368  and  _369
REMARK  157  A    between atoms: _369  and  _370
REMARK  158  A    between atoms: _373  and  _375
REMARK  159  A    between atoms: _375  and  _376
REMARK  160  A    between atoms: _379  and  _381
REMARK  161  A    between atoms: _381  and  _382
REMARK  162  A    between atoms: _381  and  _384
REMARK  163  A    between atoms: _384  and  _385
REMARK  164  A    between atoms: _388  and  _390
REMARK  165  A    between atoms: _390  and  _391
REMARK  166  A    between atoms: _393  and  _395
REMARK  167  A    between atoms: _395  and  _396
REMARK  168  A    between atoms: _395  and  _398
REMARK  169  A    between atoms: _398  and  _399
REMARK  170  A    between atoms: _399  and  _400
REMARK  171  A    between atoms: _400  and  _401
REMARK  172  A    between atoms: _411  and  _412
REMARK  173  A    between atoms: _417  and  _419
REMARK  174  A    between atoms: _419  and  _420
REMARK  175  A    between atoms: _419  and  _422
REMARK  176  A    between atoms: _422  and  _423
REMARK  177  A    between atoms: _427  and  _428
REMARK  178  A    between atoms: _433  and  _435
REMARK  179  A    between atoms: _435  and  _436
REMARK  180  A    between atoms: _438  and  _440
REMARK  181  A    between atoms: _440  and  _441
REMARK  182  A    between atoms: _440  and  _443
REMARK  183  A    between atoms: _443  and  _444
REMARK  184  A    between atoms: _444  and  _445
REMARK  185  A    between atoms: _445  and  _446
REMARK  186  A    between atoms: _455  and  _457
REMARK  187  A    between atoms: _457  and  _458
REMARK  188  A    between atoms: _457  and  _460
REMARK  189  A    between atoms: _460  and  _461
REMARK  190  A    between atoms: _466  and  _468
REMARK  191  A    between atoms: _468  and  _469
REMARK  192  A    between atoms: _468  and  _471
REMARK  193  A    between atoms: _471  and  _472
REMARK  194  A    between atoms: _478  and  _480
REMARK  195  A    between atoms: _480  and  _481
REMARK  196  A    between atoms: _480  and  _483
REMARK  197  A    between atoms: _483  and  _484
REMARK  198  A    between atoms: _487  and  _489
REMARK  199  A    between atoms: _489  and  _490
REMARK  200  A    between atoms: _489  and  _492
REMARK  201  A    between atoms: _492  and  _493
REMARK  202  A    between atoms: _499  and  _501
REMARK  203  A    between atoms: _501  and  _502
REMARK  204  A    between atoms: _504  and  _506
REMARK  205  A    between atoms: _506  and  _507
REMARK  206  A    between atoms: _509  and  _511
REMARK  207  A    between atoms: _511  and  _512
REMARK  208  A    between atoms: _511  and  _514
REMARK  209  A    between atoms: _514  and  _515
REMARK  210  A    between atoms: _520  and  _521
REMARK  211  A    between atoms: _523  and  _525
REMARK  212  A    between atoms: _525  and  _526
REMARK  213  A    between atoms: _525  and  _528
REMARK  214  A    between atoms: _528  and  _529
REMARK  215  A    between atoms: _534  and  _535
REMARK  216  A    between atoms: _537  and  _539
REMARK  217  A    between atoms: _539  and  _540
REMARK  218  A    between atoms: _539  and  _542
REMARK  219  A    between atoms: _542  and  _543
REMARK  220  A    between atoms: _546  and  _548
REMARK  221  A    between atoms: _548  and  _549
REMARK  222  A    between atoms: _548  and  _551
REMARK  223  A    between atoms: _551  and  _552
REMARK  224  A    between atoms: _555  and  _557
REMARK  225  A    between atoms: _557  and  _558
REMARK  226  A    between atoms: _557  and  _560
REMARK  227  A    between atoms: _560  and  _561
REMARK  228  A    between atoms: _561  and  _562
REMARK  229  A    between atoms: _562  and  _563
REMARK  230  A    between atoms: _563  and  _564
REMARK  231  A    between atoms: _568  and  _570
REMARK  232  A    between atoms: _570  and  _571
REMARK  233  A    between atoms: _570  and  _573
REMARK  234  A    between atoms: _573  and  _574
REMARK  235  A    between atoms: _577  and  _579
REMARK  236  A    between atoms: _579  and  _580
REMARK  237  A    between atoms: _579  and  _582
REMARK  238  A    between atoms: _582  and  _583
REMARK  239  A    between atoms: _586  and  _588
REMARK  240  A    between atoms: _588  and  _589
REMARK  241  A    between atoms: _588  and  _591
REMARK  242  A    between atoms: _591  and  _592
REMARK  243  A    between atoms: _597  and  _598
REMARK  244  A    between atoms: _600  and  _602
REMARK  245  A    between atoms: _602  and  _603
REMARK  246  A    between atoms: _602  and  _605
REMARK  247  A    between atoms: _605  and  _606
REMARK                            x       y       z     vdW  Elec       q    Type
REMARK                         _______ _______ _______ _____ _____    ______ ____
ROOT
ATOM      1  O   HOH     1      12.020 -30.074  -5.882  0.00  0.00    +0.000 OA
ENDROOT
TORSDOF 0
REMARK  Name = ../refined-set-2016/4elg/4elg_pocket.pdb
REMARK  247 active torsions:
REMARK  status: ('A' for Active; 'I' for Inactive)
REMARK    1  A    between atoms: _1  and  _3
REMARK    2  A    between atoms: _3  and  _4
REMARK    3  A    between atoms: _3  and  _6
REMARK    4  A    between atoms: _6  and  _7
REMARK    5  A    between atoms: _13  and  _15
REMARK    6  A    between atoms: _15  and  _16
REMARK    7  A    between atoms: _15  and  _18
REMARK    8  A    between atoms: _18  and  _19
REMARK    9  A    between atoms: _19  and  _20
REMARK   10  A    between atoms: _22  and  _24
REMARK   11  A    between atoms: _24  and  _25
REMARK   12  A    between atoms: _24  and  _27
REMARK   13  A    between atoms: _30  and  _32
REMARK   14  A    between atoms: _32  and  _33
REMARK   15  A    between atoms: _36  and  _38
REMARK   16  A    between atoms: _38  and  _39
REMARK   17  A    between atoms: _38  and  _41
REMARK   18  A    between atoms: _41  and  _42
REMARK   19  A    between atoms: _42  and  _43
REMARK   20  A    between atoms: _45  and  _47
REMARK   21  A    between atoms: _47  and  _48
REMARK   22  A    between atoms: _47  and  _50
REMARK   23  A    between atoms: _50  and  _51
REMARK   24  A    between atoms: _54  and  _56
REMARK   25  A    between atoms: _56  and  _57
REMARK   26  A    between atoms: _59  and  _61
REMARK   27  A    between atoms: _61  and  _62
REMARK   28  A    between atoms: _61  and  _64
REMARK   29  A    between atoms: _64  and  _65
REMARK   30  A    between atoms: _65  and  _66
REMARK   31  A    between atoms: _66  and  _67
REMARK   32  A    between atoms: _67  and  _68
REMARK   33  A    between atoms: _72  and  _74
REMARK   34  A    between atoms: _74  and  _75
REMARK   35  A    between atoms: _74  and  _77
REMARK   36  A    between atoms: _77  and  _78
REMARK   37  A    between atoms: _81  and  _83
REMARK   38  A    between atoms: _83  and  _84
REMARK   39  A    between atoms: _83  and  _86
REMARK   40  A    between atoms: _86  and  _87
REMARK   41  A    between atoms: _92  and  _94
REMARK   42  A    between atoms: _94  and  _95
REMARK   43  A    between atoms: _94  and  _97
REMARK   44  A    between atoms: _97  and  _98
REMARK   45  A    between atoms: _103  and  _105
REMARK   46  A    between atoms: _105  and  _106
REMARK   47  A    between atoms: _105  and  _108
REMARK   48  A    between atoms: _108  and  _109
REMARK   49  A    between atoms: _113  and  _114
REMARK   50  A    between atoms: _119  and  _121
REMARK   51  A    between atoms: _121  and  _122
REMARK   52  A    between atoms: _121  and  _124
REMARK   53  A    between atoms: _124  and  _125
REMARK   54  A    between atoms: _135  and  _137
REMARK   55  A    between atoms: _137  and  _138
REMARK   56  A    between atoms: _137  and  _140
REMARK   57  A    between atoms: _140  and  _141
REMARK   58  A    between atoms: _141  and  _142
REMARK   59  A    between atoms: _142  and  _143
REMARK   60  A    between atoms: _152  and  _154
REMARK   61  A    between atoms: _154  and  _155
REMARK   62  A    between atoms: _154  and  _157
REMARK   63  A    between atoms: _157  and  _158
REMARK   64  A    between atoms: _162  and  _163
REMARK   65  A    between atoms: _168  and  _170
REMARK   66  A    between atoms: _170  and  _171
REMARK   67  A    between atoms: _170  and  _173
REMARK   68  A    between atoms: _173  and  _174
REMARK   69  A    between atoms: _176  and  _178
REMARK   70  A    between atoms: _178  and  _179
REMARK   71  A    between atoms: _178  and  _181
REMARK   72  A    between atoms: _181  and  _182
REMARK   73  A    between atoms: _182  and  _183
REMARK   74  A    between atoms: _186  and  _188
REMARK   75  A    between atoms: _188  and  _189
REMARK   76  A    between atoms: _188  and  _191
REMARK   77  A    between atoms: _191  and  _192
REMARK   78  A    between atoms: _195  and  _197
REMARK   79  A    between atoms: _197  and  _198
REMARK   80  A    between atoms: _197  and  _200
REMARK   81  A    between atoms: _200  and  _201
REMARK   82  A    between atoms: _201  and  _202
REMARK   83  A    between atoms: _207  and  _209
REMARK   84  A    between atoms: _209  and  _210
REMARK   85  A    between atoms: _209  and  _212
REMARK   86  A    between atoms: _212  and  _213
REMARK   87  A    between atoms: _218  and  _219
REMARK   88  A    between atoms: _221  and  _223
REMARK   89  A    between atoms: _223  and  _224
REMARK   90  A    between atoms: _223  and  _226
REMARK   91  A    between atoms: _229  and  _231
REMARK   92  A    between atoms: _231  and  _232
REMARK   93  A    between atoms: _231  and  _234
REMARK   94  A    between atoms: _234  and  _235
REMARK   95  A    between atoms: _235  and  _236
REMARK   96  A    between atoms: _236  and  _237
REMARK   97  A    between atoms: _237  and  _238
REMARK   98  A    between atoms: _242  and  _244
REMARK   99  A    between atoms: _244  and  _245
REMARK  100  A    between atoms: _244  and  _247
REMARK  101  A    between atoms: _247  and  _248
REMARK  102  A    between atoms: _248  and  _249
REMARK  103  A    between atoms: _249  and  _250
REMARK  104  A    between atoms: _250  and  _251
REMARK  105  A    between atoms: _255  and  _257
REMARK  106  A    between atoms: _257  and  _258
REMARK  107  A    between atoms: _257  and  _260
REMARK  108  A    between atoms: _260  and  _261
REMARK  109  A    between atoms: _264  and  _266
REMARK  110  A    between atoms: _266  and  _267
REMARK  111  A    between atoms: _266  and  _269
REMARK  112  A    between atoms: _269  and  _270
REMARK  113  A    between atoms: _273  and  _275
REMARK  114  A    between atoms: _275  and  _276
REMARK  115  A    between atoms: _275  and  _278
REMARK  116  A    between atoms: _278  and  _279
REMARK  117  A    between atoms: _279  and  _280
REMARK  118  A    between atoms: _282  and  _284
REMARK  119  A    between atoms: _284  and  _285
REMARK  120  A    between atoms: _287  and  _289
REMARK  121  A    between atoms: _289  and  _290
REMARK  122  A    between atoms: _289  and  _292
REMARK  123  A    between atoms: _292  and  _293
REMARK  124  A    between atoms: _298  and  _300
REMARK  125  A    between atoms: _300  and  _301
REMARK  126  A    between atoms: _300  and  _303
REMARK  127  A    between atoms: _303  and  _304
REMARK  128  A    between atoms: _307  and  _309
REMARK  129  A    between atoms: _309  and  _310
REMARK  130  A    between atoms: _309  and  _312
REMARK  131  A    between atoms: _312  and  _313
REMARK  132  A    between atoms: _316  and  _318
REMARK  133  A    between atoms: _318  and  _319
REMARK  134  A    between atoms: _318  and  _321
REMARK  135  A    between atoms: _321  and  _322
REMARK  136  A    between atoms: _322  and  _323
REMARK  137  A    between atoms: _325  and  _327
REMARK  138  A    between atoms: _327  and  _328
REMARK  139  A    between atoms: _327  and  _330
REMARK  140  A    between atoms: _330  and  _331
REMARK  141  A    between atoms: _331  and  _332
REMARK  142  A    between atoms: _332  and  _333
REMARK  143  A    between atoms: _333  and  _334
REMARK  144  A    between atoms: _338  and  _340
REMARK  145  A    between atoms: _340  and  _341
REMARK  146  A    between atoms: _340  and  _343
REMARK  147  A    between atoms: _343  and  _344
REMARK  148  A    between atoms: _349  and  _351
REMARK  149  A    between atoms: _351  and  _352
REMARK  150  A    between atoms: _351  and  _354
REMARK  151  A    between atoms: _354  and  _355
REMARK  152  A    between atoms: _360  and  _361
REMARK  153  A    between atoms: _363  and  _365
REMARK  154  A    between atoms: _365  and  _366
REMARK  155  A    between atoms: _365  and  _368
REMARK  156  A    between atoms: _368  and  _369
REMARK  157  A    between atoms: _369  and  _370
REMARK  158  A    between atoms: _373  and  _375
REMARK  159  A    between atoms: _375  and  _376
REMARK  160  A    between atoms: _379  and  _381
REMARK  161  A    between atoms: _381  and  _382
REMARK  162  A    between atoms: _381  and  _384
REMARK  163  A    between atoms: _384  and  _385
REMARK  164  A    between atoms: _388  and  _390
REMARK  165  A    between atoms: _390  and  _391
REMARK  166  A    between atoms: _393  and  _395
REMARK  167  A    between atoms: _395  and  _396
REMARK  168  A    between atoms: _395  and  _398
REMARK  169  A    between atoms: _398  and  _399
REMARK  170  A    between atoms: _399  and  _400
REMARK  171  A    between atoms: _400  and  _401
REMARK  172  A    between atoms: _411  and  _412
REMARK  173  A    between atoms: _417  and  _419
REMARK  174  A    between atoms: _419  and  _420
REMARK  175  A    between atoms: _419  and  _422
REMARK  176  A    between atoms: _422  and  _423
REMARK  177  A    between atoms: _427  and  _428
REMARK  178  A    between atoms: _433  and  _435
REMARK  179  A    between atoms: _435  and  _436
REMARK  180  A    between atoms: _438  and  _440
REMARK  181  A    between atoms: _440  and  _441
REMARK  182  A    between atoms: _440  and  _443
REMARK  183  A    between atoms: _443  and  _444
REMARK  184  A    between atoms: _444  and  _445
REMARK  185  A    between atoms: _445  and  _446
REMARK  186  A    between atoms: _455  and  _457
REMARK  187  A    between atoms: _457  and  _458
REMARK  188  A    between atoms: _457  and  _460
REMARK  189  A    between atoms: _460  and  _461
REMARK  190  A    between atoms: _466  and  _468
REMARK  191  A    between atoms: _468  and  _469
REMARK  192  A    between atoms: _468  and  _471
REMARK  193  A    between atoms: _471  and  _472
REMARK  194  A    between atoms: _478  and  _480
REMARK  195  A    between atoms: _480  and  _481
REMARK  196  A    between atoms: _480  and  _483
REMARK  197  A    between atoms: _483  and  _484
REMARK  198  A    between atoms: _487  and  _489
REMARK  199  A    between atoms: _489  and  _490
REMARK  200  A    between atoms: _489  and  _492
REMARK  201  A    between atoms: _492  and  _493
REMARK  202  A    between atoms: _499  and  _501
REMARK  203  A    between atoms: _501  and  _502
REMARK  204  A    between atoms: _504  and  _506
REMARK  205  A    between atoms: _506  and  _507
REMARK  206  A    between atoms: _509  and  _511
REMARK  207  A    between atoms: _511  and  _512
REMARK  208  A    between atoms: _511  and  _514
REMARK  209  A    between atoms: _514  and  _515
REMARK  210  A    between atoms: _520  and  _521
REMARK  211  A    between atoms: _523  and  _525
REMARK  212  A    between atoms: _525  and  _526
REMARK  213  A    between atoms: _525  and  _528
REMARK  214  A    between atoms: _528  and  _529
REMARK  215  A    between atoms: _534  and  _535
REMARK  216  A    between atoms: _537  and  _539
REMARK  217  A    between atoms: _539  and  _540
REMARK  218  A    between atoms: _539  and  _542
REMARK  219  A    between atoms: _542  and  _543
REMARK  220  A    between atoms: _546  and  _548
REMARK  221  A    between atoms: _548  and  _549
REMARK  222  A    between atoms: _548  and  _551
REMARK  223  A    between atoms: _551  and  _552
REMARK  224  A    between atoms: _555  and  _557
REMARK  225  A    between atoms: _557  and  _558
REMARK  226  A    between atoms: _557  and  _560
REMARK  227  A    between atoms: _560  and  _561
REMARK  228  A    between atoms: _561  and  _562
REMARK  229  A    between atoms: _562  and  _563
REMARK  230  A    between atoms: _563  and  _564
REMARK  231  A    between atoms: _568  and  _570
REMARK  232  A    between atoms: _570  and  _571
REMARK  233  A    between atoms: _570  and  _573
REMARK  234  A    between atoms: _573  and  _574
REMARK  235  A    between atoms: _577  and  _579
REMARK  236  A    between atoms: _579  and  _580
REMARK  237  A    between atoms: _579  and  _582
REMARK  238  A    between atoms: _582  and  _583
REMARK  239  A    between atoms: _586  and  _588
REMARK  240  A    between atoms: _588  and  _589
REMARK  241  A    between atoms: _588  and  _591
REMARK  242  A    between atoms: _591  and  _592
REMARK  243  A    between atoms: _597  and  _598
REMARK  244  A    between atoms: _600  and  _602
REMARK  245  A    between atoms: _602  and  _603
REMARK  246  A    between atoms: _602  and  _605
REMARK  247  A    between atoms: _605  and  _606
REMARK                            x       y       z     vdW  Elec       q    Type
REMARK                         _______ _______ _______ _____ _____    ______ ____
ROOT
ATOM      1  O   HOH     1      27.569 -37.209  -1.147  0.00  0.00    +0.000 OA
ENDROOT
TORSDOF 0
REMARK  Name = ../refined-set-2016/4elg/4elg_pocket.pdb
REMARK  247 active torsions:
REMARK  status: ('A' for Active; 'I' for Inactive)
REMARK    1  A    between atoms: _1  and  _3
REMARK    2  A    between atoms: _3  and  _4
REMARK    3  A    between atoms: _3  and  _6
REMARK    4  A    between atoms: _6  and  _7
REMARK    5  A    between atoms: _13  and  _15
REMARK    6  A    between atoms: _15  and  _16
REMARK    7  A    between atoms: _15  and  _18
REMARK    8  A    between atoms: _18  and  _19
REMARK    9  A    between atoms: _19  and  _20
REMARK   10  A    between atoms: _22  and  _24
REMARK   11  A    between atoms: _24  and  _25
REMARK   12  A    between atoms: _24  and  _27
REMARK   13  A    between atoms: _30  and  _32
REMARK   14  A    between atoms: _32  and  _33
REMARK   15  A    between atoms: _36  and  _38
REMARK   16  A    between atoms: _38  and  _39
REMARK   17  A    between atoms: _38  and  _41
REMARK   18  A    between atoms: _41  and  _42
REMARK   19  A    between atoms: _42  and  _43
REMARK   20  A    between atoms: _45  and  _47
REMARK   21  A    between atoms: _47  and  _48
REMARK   22  A    between atoms: _47  and  _50
REMARK   23  A    between atoms: _50  and  _51
REMARK   24  A    between atoms: _54  and  _56
REMARK   25  A    between atoms: _56  and  _57
REMARK   26  A    between atoms: _59  and  _61
REMARK   27  A    between atoms: _61  and  _62
REMARK   28  A    between atoms: _61  and  _64
REMARK   29  A    between atoms: _64  and  _65
REMARK   30  A    between atoms: _65  and  _66
REMARK   31  A    between atoms: _66  and  _67
REMARK   32  A    between atoms: _67  and  _68
REMARK   33  A    between atoms: _72  and  _74
REMARK   34  A    between atoms: _74  and  _75
REMARK   35  A    between atoms: _74  and  _77
REMARK   36  A    between atoms: _77  and  _78
REMARK   37  A    between atoms: _81  and  _83
REMARK   38  A    between atoms: _83  and  _84
REMARK   39  A    between atoms: _83  and  _86
REMARK   40  A    between atoms: _86  and  _87
REMARK   41  A    between atoms: _92  and  _94
REMARK   42  A    between atoms: _94  and  _95
REMARK   43  A    between atoms: _94  and  _97
REMARK   44  A    between atoms: _97  and  _98
REMARK   45  A    between atoms: _103  and  _105
REMARK   46  A    between atoms: _105  and  _106
REMARK   47  A    between atoms: _105  and  _108
REMARK   48  A    between atoms: _108  and  _109
REMARK   49  A    between atoms: _113  and  _114
REMARK   50  A    between atoms: _119  and  _121
REMARK   51  A    between atoms: _121  and  _122
REMARK   52  A    between atoms: _121  and  _124
REMARK   53  A    between atoms: _124  and  _125
REMARK   54  A    between atoms: _135  and  _137
REMARK   55  A    between atoms: _137  and  _138
REMARK   56  A    between atoms: _137  and  _140
REMARK   57  A    between atoms: _140  and  _141
REMARK   58  A    between atoms: _141  and  _142
REMARK   59  A    between atoms: _142  and  _143
REMARK   60  A    between atoms: _152  and  _154
REMARK   61  A    between atoms: _154  and  _155
REMARK   62  A    between atoms: _154  and  _157
REMARK   63  A    between atoms: _157  and  _158
REMARK   64  A    between atoms: _162  and  _163
REMARK   65  A    between atoms: _168  and  _170
REMARK   66  A    between atoms: _170  and  _171
REMARK   67  A    between atoms: _170  and  _173
REMARK   68  A    between atoms: _173  and  _174
REMARK   69  A    between atoms: _176  and  _178
REMARK   70  A    between atoms: _178  and  _179
REMARK   71  A    between atoms: _178  and  _181
REMARK   72  A    between atoms: _181  and  _182
REMARK   73  A    between atoms: _182  and  _183
REMARK   74  A    between atoms: _186  and  _188
REMARK   75  A    between atoms: _188  and  _189
REMARK   76  A    between atoms: _188  and  _191
REMARK   77  A    between atoms: _191  and  _192
REMARK   78  A    between atoms: _195  and  _197
REMARK   79  A    between atoms: _197  and  _198
REMARK   80  A    between atoms: _197  and  _200
REMARK   81  A    between atoms: _200  and  _201
REMARK   82  A    between atoms: _201  and  _202
REMARK   83  A    between atoms: _207  and  _209
REMARK   84  A    between atoms: _209  and  _210
REMARK   85  A    between atoms: _209  and  _212
REMARK   86  A    between atoms: _212  and  _213
REMARK   87  A    between atoms: _218  and  _219
REMARK   88  A    between atoms: _221  and  _223
REMARK   89  A    between atoms: _223  and  _224
REMARK   90  A    between atoms: _223  and  _226
REMARK   91  A    between atoms: _229  and  _231
REMARK   92  A    between atoms: _231  and  _232
REMARK   93  A    between atoms: _231  and  _234
REMARK   94  A    between atoms: _234  and  _235
REMARK   95  A    between atoms: _235  and  _236
REMARK   96  A    between atoms: _236  and  _237
REMARK   97  A    between atoms: _237  and  _238
REMARK   98  A    between atoms: _242  and  _244
REMARK   99  A    between atoms: _244  and  _245
REMARK  100  A    between atoms: _244  and  _247
REMARK  101  A    between atoms: _247  and  _248
REMARK  102  A    between atoms: _248  and  _249
REMARK  103  A    between atoms: _249  and  _250
REMARK  104  A    between atoms: _250  and  _251
REMARK  105  A    between atoms: _255  and  _257
REMARK  106  A    between atoms: _257  and  _258
REMARK  107  A    between atoms: _257  and  _260
REMARK  108  A    between atoms: _260  and  _261
REMARK  109  A    between atoms: _264  and  _266
REMARK  110  A    between atoms: _266  and  _267
REMARK  111  A    between atoms: _266  and  _269
REMARK  112  A    between atoms: _269  and  _270
REMARK  113  A    between atoms: _273  and  _275
REMARK  114  A    between atoms: _275  and  _276
REMARK  115  A    between atoms: _275  and  _278
REMARK  116  A    between atoms: _278  and  _279
REMARK  117  A    between atoms: _279  and  _280
REMARK  118  A    between atoms: _282  and  _284
REMARK  119  A    between atoms: _284  and  _285
REMARK  120  A    between atoms: _287  and  _289
REMARK  121  A    between atoms: _289  and  _290
REMARK  122  A    between atoms: _289  and  _292
REMARK  123  A    between atoms: _292  and  _293
REMARK  124  A    between atoms: _298  and  _300
REMARK  125  A    between atoms: _300  and  _301
REMARK  126  A    between atoms: _300  and  _303
REMARK  127  A    between atoms: _303  and  _304
REMARK  128  A    between atoms: _307  and  _309
REMARK  129  A    between atoms: _309  and  _310
REMARK  130  A    between atoms: _309  and  _312
REMARK  131  A    between atoms: _312  and  _313
REMARK  132  A    between atoms: _316  and  _318
REMARK  133  A    between atoms: _318  and  _319
REMARK  134  A    between atoms: _318  and  _321
REMARK  135  A    between atoms: _321  and  _322
REMARK  136  A    between atoms: _322  and  _323
REMARK  137  A    between atoms: _325  and  _327
REMARK  138  A    between atoms: _327  and  _328
REMARK  139  A    between atoms: _327  and  _330
REMARK  140  A    between atoms: _330  and  _331
REMARK  141  A    between atoms: _331  and  _332
REMARK  142  A    between atoms: _332  and  _333
REMARK  143  A    between atoms: _333  and  _334
REMARK  144  A    between atoms: _338  and  _340
REMARK  145  A    between atoms: _340  and  _341
REMARK  146  A    between atoms: _340  and  _343
REMARK  147  A    between atoms: _343  and  _344
REMARK  148  A    between atoms: _349  and  _351
REMARK  149  A    between atoms: _351  and  _352
REMARK  150  A    between atoms: _351  and  _354
REMARK  151  A    between atoms: _354  and  _355
REMARK  152  A    between atoms: _360  and  _361
REMARK  153  A    between atoms: _363  and  _365
REMARK  154  A    between atoms: _365  and  _366
REMARK  155  A    between atoms: _365  and  _368
REMARK  156  A    between atoms: _368  and  _369
REMARK  157  A    between atoms: _369  and  _370
REMARK  158  A    between atoms: _373  and  _375
REMARK  159  A    between atoms: _375  and  _376
REMARK  160  A    between atoms: _379  and  _381
REMARK  161  A    between atoms: _381  and  _382
REMARK  162  A    between atoms: _381  and  _384
REMARK  163  A    between atoms: _384  and  _385
REMARK  164  A    between atoms: _388  and  _390
REMARK  165  A    between atoms: _390  and  _391
REMARK  166  A    between atoms: _393  and  _395
REMARK  167  A    between atoms: _395  and  _396
REMARK  168  A    between atoms: _395  and  _398
REMARK  169  A    between atoms: _398  and  _399
REMARK  170  A    between atoms: _399  and  _400
REMARK  171  A    between atoms: _400  and  _401
REMARK  172  A    between atoms: _411  and  _412
REMARK  173  A    between atoms: _417  and  _419
REMARK  174  A    between atoms: _419  and  _420
REMARK  175  A    between atoms: _419  and  _422
REMARK  176  A    between atoms: _422  and  _423
REMARK  177  A    between atoms: _427  and  _428
REMARK  178  A    between atoms: _433  and  _435
REMARK  179  A    between atoms: _435  and  _436
REMARK  180  A    between atoms: _438  and  _440
REMARK  181  A    between atoms: _440  and  _441
REMARK  182  A    between atoms: _440  and  _443
REMARK  183  A    between atoms: _443  and  _444
REMARK  184  A    between atoms: _444  and  _445
REMARK  185  A    between atoms: _445  and  _446
REMARK  186  A    between atoms: _455  and  _457
REMARK  187  A    between atoms: _457  and  _458
REMARK  188  A    between atoms: _457  and  _460
REMARK  189  A    between atoms: _460  and  _461
REMARK  190  A    between atoms: _466  and  _468
REMARK  191  A    between atoms: _468  and  _469
REMARK  192  A    between atoms: _468  and  _471
REMARK  193  A    between atoms: _471  and  _472
REMARK  194  A    between atoms: _478  and  _480
REMARK  195  A    between atoms: _480  and  _481
REMARK  196  A    between atoms: _480  and  _483
REMARK  197  A    between atoms: _483  and  _484
REMARK  198  A    between atoms: _487  and  _489
REMARK  199  A    between atoms: _489  and  _490
REMARK  200  A    between atoms: _489  and  _492
REMARK  201  A    between atoms: _492  and  _493
REMARK  202  A    between atoms: _499  and  _501
REMARK  203  A    between atoms: _501  and  _502
REMARK  204  A    between atoms: _504  and  _506
REMARK  205  A    between atoms: _506  and  _507
REMARK  206  A    between atoms: _509  and  _511
REMARK  207  A    between atoms: _511  and  _512
REMARK  208  A    between atoms: _511  and  _514
REMARK  209  A    between atoms: _514  and  _515
REMARK  210  A    between atoms: _520  and  _521
REMARK  211  A    between atoms: _523  and  _525
REMARK  212  A    between atoms: _525  and  _526
REMARK  213  A    between atoms: _525  and  _528
REMARK  214  A    between atoms: _528  and  _529
REMARK  215  A    between atoms: _534  and  _535
REMARK  216  A    between atoms: _537  and  _539
REMARK  217  A    between atoms: _539  and  _540
REMARK  218  A    between atoms: _539  and  _542
REMARK  219  A    between atoms: _542  and  _543
REMARK  220  A    between atoms: _546  and  _548
REMARK  221  A    between atoms: _548  and  _549
REMARK  222  A    between atoms: _548  and  _551
REMARK  223  A    between atoms: _551  and  _552
REMARK  224  A    between atoms: _555  and  _557
REMARK  225  A    between atoms: _557  and  _558
REMARK  226  A    between atoms: _557  and  _560
REMARK  227  A    between atoms: _560  and  _561
REMARK  228  A    between atoms: _561  and  _562
REMARK  229  A    between atoms: _562  and  _563
REMARK  230  A    between atoms: _563  and  _564
REMARK  231  A    between atoms: _568  and  _570
REMARK  232  A    between atoms: _570  and  _571
REMARK  233  A    between atoms: _570  and  _573
REMARK  234  A    between atoms: _573  and  _574
REMARK  235  A    between atoms: _577  and  _579
REMARK  236  A    between atoms: _579  and  _580
REMARK  237  A    between atoms: _579  and  _582
REMARK  238  A    between atoms: _582  and  _583
REMARK  239  A    between atoms: _586  and  _588
REMARK  240  A    between atoms: _588  and  _589
REMARK  241  A    between atoms: _588  and  _591
REMARK  242  A    between atoms: _591  and  _592
REMARK  243  A    between atoms: _597  and  _598
REMARK  244  A    between atoms: _600  and  _602
REMARK  245  A    between atoms: _602  and  _603
REMARK  246  A    between atoms: _602  and  _605
REMARK  247  A    between atoms: _605  and  _606
REMARK                            x       y       z     vdW  Elec       q    Type
REMARK                         _______ _______ _______ _____ _____    ______ ____
ROOT
ATOM      1  O   HOH     1      25.803 -39.688   3.305  0.00  0.00    +0.000 OA
ENDROOT
TORSDOF 0
REMARK  Name = ../refined-set-2016/4elg/4elg_pocket.pdb
REMARK  247 active torsions:
REMARK  status: ('A' for Active; 'I' for Inactive)
REMARK    1  A    between atoms: _1  and  _3
REMARK    2  A    between atoms: _3  and  _4
REMARK    3  A    between atoms: _3  and  _6
REMARK    4  A    between atoms: _6  and  _7
REMARK    5  A    between atoms: _13  and  _15
REMARK    6  A    between atoms: _15  and  _16
REMARK    7  A    between atoms: _15  and  _18
REMARK    8  A    between atoms: _18  and  _19
REMARK    9  A    between atoms: _19  and  _20
REMARK   10  A    between atoms: _22  and  _24
REMARK   11  A    between atoms: _24  and  _25
REMARK   12  A    between atoms: _24  and  _27
REMARK   13  A    between atoms: _30  and  _32
REMARK   14  A    between atoms: _32  and  _33
REMARK   15  A    between atoms: _36  and  _38
REMARK   16  A    between atoms: _38  and  _39
REMARK   17  A    between atoms: _38  and  _41
REMARK   18  A    between atoms: _41  and  _42
REMARK   19  A    between atoms: _42  and  _43
REMARK   20  A    between atoms: _45  and  _47
REMARK   21  A    between atoms: _47  and  _48
REMARK   22  A    between atoms: _47  and  _50
REMARK   23  A    between atoms: _50  and  _51
REMARK   24  A    between atoms: _54  and  _56
REMARK   25  A    between atoms: _56  and  _57
REMARK   26  A    between atoms: _59  and  _61
REMARK   27  A    between atoms: _61  and  _62
REMARK   28  A    between atoms: _61  and  _64
REMARK   29  A    between atoms: _64  and  _65
REMARK   30  A    between atoms: _65  and  _66
REMARK   31  A    between atoms: _66  and  _67
REMARK   32  A    between atoms: _67  and  _68
REMARK   33  A    between atoms: _72  and  _74
REMARK   34  A    between atoms: _74  and  _75
REMARK   35  A    between atoms: _74  and  _77
REMARK   36  A    between atoms: _77  and  _78
REMARK   37  A    between atoms: _81  and  _83
REMARK   38  A    between atoms: _83  and  _84
REMARK   39  A    between atoms: _83  and  _86
REMARK   40  A    between atoms: _86  and  _87
REMARK   41  A    between atoms: _92  and  _94
REMARK   42  A    between atoms: _94  and  _95
REMARK   43  A    between atoms: _94  and  _97
REMARK   44  A    between atoms: _97  and  _98
REMARK   45  A    between atoms: _103  and  _105
REMARK   46  A    between atoms: _105  and  _106
REMARK   47  A    between atoms: _105  and  _108
REMARK   48  A    between atoms: _108  and  _109
REMARK   49  A    between atoms: _113  and  _114
REMARK   50  A    between atoms: _119  and  _121
REMARK   51  A    between atoms: _121  and  _122
REMARK   52  A    between atoms: _121  and  _124
REMARK   53  A    between atoms: _124  and  _125
REMARK   54  A    between atoms: _135  and  _137
REMARK   55  A    between atoms: _137  and  _138
REMARK   56  A    between atoms: _137  and  _140
REMARK   57  A    between atoms: _140  and  _141
REMARK   58  A    between atoms: _141  and  _142
REMARK   59  A    between atoms: _142  and  _143
REMARK   60  A    between atoms: _152  and  _154
REMARK   61  A    between atoms: _154  and  _155
REMARK   62  A    between atoms: _154  and  _157
REMARK   63  A    between atoms: _157  and  _158
REMARK   64  A    between atoms: _162  and  _163
REMARK   65  A    between atoms: _168  and  _170
REMARK   66  A    between atoms: _170  and  _171
REMARK   67  A    between atoms: _170  and  _173
REMARK   68  A    between atoms: _173  and  _174
REMARK   69  A    between atoms: _176  and  _178
REMARK   70  A    between atoms: _178  and  _179
REMARK   71  A    between atoms: _178  and  _181
REMARK   72  A    between atoms: _181  and  _182
REMARK   73  A    between atoms: _182  and  _183
REMARK   74  A    between atoms: _186  and  _188
REMARK   75  A    between atoms: _188  and  _189
REMARK   76  A    between atoms: _188  and  _191
REMARK   77  A    between atoms: _191  and  _192
REMARK   78  A    between atoms: _195  and  _197
REMARK   79  A    between atoms: _197  and  _198
REMARK   80  A    between atoms: _197  and  _200
REMARK   81  A    between atoms: _200  and  _201
REMARK   82  A    between atoms: _201  and  _202
REMARK   83  A    between atoms: _207  and  _209
REMARK   84  A    between atoms: _209  and  _210
REMARK   85  A    between atoms: _209  and  _212
REMARK   86  A    between atoms: _212  and  _213
REMARK   87  A    between atoms: _218  and  _219
REMARK   88  A    between atoms: _221  and  _223
REMARK   89  A    between atoms: _223  and  _224
REMARK   90  A    between atoms: _223  and  _226
REMARK   91  A    between atoms: _229  and  _231
REMARK   92  A    between atoms: _231  and  _232
REMARK   93  A    between atoms: _231  and  _234
REMARK   94  A    between atoms: _234  and  _235
REMARK   95  A    between atoms: _235  and  _236
REMARK   96  A    between atoms: _236  and  _237
REMARK   97  A    between atoms: _237  and  _238
REMARK   98  A    between atoms: _242  and  _244
REMARK   99  A    between atoms: _244  and  _245
REMARK  100  A    between atoms: _244  and  _247
REMARK  101  A    between atoms: _247  and  _248
REMARK  102  A    between atoms: _248  and  _249
REMARK  103  A    between atoms: _249  and  _250
REMARK  104  A    between atoms: _250  and  _251
REMARK  105  A    between atoms: _255  and  _257
REMARK  106  A    between atoms: _257  and  _258
REMARK  107  A    between atoms: _257  and  _260
REMARK  108  A    between atoms: _260  and  _261
REMARK  109  A    between atoms: _264  and  _266
REMARK  110  A    between atoms: _266  and  _267
REMARK  111  A    between atoms: _266  and  _269
REMARK  112  A    between atoms: _269  and  _270
REMARK  113  A    between atoms: _273  and  _275
REMARK  114  A    between atoms: _275  and  _276
REMARK  115  A    between atoms: _275  and  _278
REMARK  116  A    between atoms: _278  and  _279
REMARK  117  A    between atoms: _279  and  _280
REMARK  118  A    between atoms: _282  and  _284
REMARK  119  A    between atoms: _284  and  _285
REMARK  120  A    between atoms: _287  and  _289
REMARK  121  A    between atoms: _289  and  _290
REMARK  122  A    between atoms: _289  and  _292
REMARK  123  A    between atoms: _292  and  _293
REMARK  124  A    between atoms: _298  and  _300
REMARK  125  A    between atoms: _300  and  _301
REMARK  126  A    between atoms: _300  and  _303
REMARK  127  A    between atoms: _303  and  _304
REMARK  128  A    between atoms: _307  and  _309
REMARK  129  A    between atoms: _309  and  _310
REMARK  130  A    between atoms: _309  and  _312
REMARK  131  A    between atoms: _312  and  _313
REMARK  132  A    between atoms: _316  and  _318
REMARK  133  A    between atoms: _318  and  _319
REMARK  134  A    between atoms: _318  and  _321
REMARK  135  A    between atoms: _321  and  _322
REMARK  136  A    between atoms: _322  and  _323
REMARK  137  A    between atoms: _325  and  _327
REMARK  138  A    between atoms: _327  and  _328
REMARK  139  A    between atoms: _327  and  _330
REMARK  140  A    between atoms: _330  and  _331
REMARK  141  A    between atoms: _331  and  _332
REMARK  142  A    between atoms: _332  and  _333
REMARK  143  A    between atoms: _333  and  _334
REMARK  144  A    between atoms: _338  and  _340
REMARK  145  A    between atoms: _340  and  _341
REMARK  146  A    between atoms: _340  and  _343
REMARK  147  A    between atoms: _343  and  _344
REMARK  148  A    between atoms: _349  and  _351
REMARK  149  A    between atoms: _351  and  _352
REMARK  150  A    between atoms: _351  and  _354
REMARK  151  A    between atoms: _354  and  _355
REMARK  152  A    between atoms: _360  and  _361
REMARK  153  A    between atoms: _363  and  _365
REMARK  154  A    between atoms: _365  and  _366
REMARK  155  A    between atoms: _365  and  _368
REMARK  156  A    between atoms: _368  and  _369
REMARK  157  A    between atoms: _369  and  _370
REMARK  158  A    between atoms: _373  and  _375
REMARK  159  A    between atoms: _375  and  _376
REMARK  160  A    between atoms: _379  and  _381
REMARK  161  A    between atoms: _381  and  _382
REMARK  162  A    between atoms: _381  and  _384
REMARK  163  A    between atoms: _384  and  _385
REMARK  164  A    between atoms: _388  and  _390
REMARK  165  A    between atoms: _390  and  _391
REMARK  166  A    between atoms: _393  and  _395
REMARK  167  A    between atoms: _395  and  _396
REMARK  168  A    between atoms: _395  and  _398
REMARK  169  A    between atoms: _398  and  _399
REMARK  170  A    between atoms: _399  and  _400
REMARK  171  A    between atoms: _400  and  _401
REMARK  172  A    between atoms: _411  and  _412
REMARK  173  A    between atoms: _417  and  _419
REMARK  174  A    between atoms: _419  and  _420
REMARK  175  A    between atoms: _419  and  _422
REMARK  176  A    between atoms: _422  and  _423
REMARK  177  A    between atoms: _427  and  _428
REMARK  178  A    between atoms: _433  and  _435
REMARK  179  A    between atoms: _435  and  _436
REMARK  180  A    between atoms: _438  and  _440
REMARK  181  A    between atoms: _440  and  _441
REMARK  182  A    between atoms: _440  and  _443
REMARK  183  A    between atoms: _443  and  _444
REMARK  184  A    between atoms: _444  and  _445
REMARK  185  A    between atoms: _445  and  _446
REMARK  186  A    between atoms: _455  and  _457
REMARK  187  A    between atoms: _457  and  _458
REMARK  188  A    between atoms: _457  and  _460
REMARK  189  A    between atoms: _460  and  _461
REMARK  190  A    between atoms: _466  and  _468
REMARK  191  A    between atoms: _468  and  _469
REMARK  192  A    between atoms: _468  and  _471
REMARK  193  A    between atoms: _471  and  _472
REMARK  194  A    between atoms: _478  and  _480
REMARK  195  A    between atoms: _480  and  _481
REMARK  196  A    between atoms: _480  and  _483
REMARK  197  A    between atoms: _483  and  _484
REMARK  198  A    between atoms: _487  and  _489
REMARK  199  A    between atoms: _489  and  _490
REMARK  200  A    between atoms: _489  and  _492
REMARK  201  A    between atoms: _492  and  _493
REMARK  202  A    between atoms: _499  and  _501
REMARK  203  A    between atoms: _501  and  _502
REMARK  204  A    between atoms: _504  and  _506
REMARK  205  A    between atoms: _506  and  _507
REMARK  206  A    between atoms: _509  and  _511
REMARK  207  A    between atoms: _511  and  _512
REMARK  208  A    between atoms: _511  and  _514
REMARK  209  A    between atoms: _514  and  _515
REMARK  210  A    between atoms: _520  and  _521
REMARK  211  A    between atoms: _523  and  _525
REMARK  212  A    between atoms: _525  and  _526
REMARK  213  A    between atoms: _525  and  _528
REMARK  214  A    between atoms: _528  and  _529
REMARK  215  A    between atoms: _534  and  _535
REMARK  216  A    between atoms: _537  and  _539
REMARK  217  A    between atoms: _539  and  _540
REMARK  218  A    between atoms: _539  and  _542
REMARK  219  A    between atoms: _542  and  _543
REMARK  220  A    between atoms: _546  and  _548
REMARK  221  A    between atoms: _548  and  _549
REMARK  222  A    between atoms: _548  and  _551
REMARK  223  A    between atoms: _551  and  _552
REMARK  224  A    between atoms: _555  and  _557
REMARK  225  A    between atoms: _557  and  _558
REMARK  226  A    between atoms: _557  and  _560
REMARK  227  A    between atoms: _560  and  _561
REMARK  228  A    between atoms: _561  and  _562
REMARK  229  A    between atoms: _562  and  _563
REMARK  230  A    between atoms: _563  and  _564
REMARK  231  A    between atoms: _568  and  _570
REMARK  232  A    between atoms: _570  and  _571
REMARK  233  A    between atoms: _570  and  _573
REMARK  234  A    between atoms: _573  and  _574
REMARK  235  A    between atoms: _577  and  _579
REMARK  236  A    between atoms: _579  and  _580
REMARK  237  A    between atoms: _579  and  _582
REMARK  238  A    between atoms: _582  and  _583
REMARK  239  A    between atoms: _586  and  _588
REMARK  240  A    between atoms: _588  and  _589
REMARK  241  A    between atoms: _588  and  _591
REMARK  242  A    between atoms: _591  and  _592
REMARK  243  A    between atoms: _597  and  _598
REMARK  244  A    between atoms: _600  and  _602
REMARK  245  A    between atoms: _602  and  _603
REMARK  246  A    between atoms: _602  and  _605
REMARK  247  A    between atoms: _605  and  _606
REMARK                            x       y       z     vdW  Elec       q    Type
REMARK                         _______ _______ _______ _____ _____    ______ ____
ROOT
ATOM      1  O   HOH     1      16.048 -27.299   5.122  0.00  0.00    +0.000 OA
ENDROOT
TORSDOF 0
REMARK  Name = ../refined-set-2016/4elg/4elg_pocket.pdb
REMARK  247 active torsions:
REMARK  status: ('A' for Active; 'I' for Inactive)
REMARK    1  A    between atoms: _1  and  _3
REMARK    2  A    between atoms: _3  and  _4
REMARK    3  A    between atoms: _3  and  _6
REMARK    4  A    between atoms: _6  and  _7
REMARK    5  A    between atoms: _13  and  _15
REMARK    6  A    between atoms: _15  and  _16
REMARK    7  A    between atoms: _15  and  _18
REMARK    8  A    between atoms: _18  and  _19
REMARK    9  A    between atoms: _19  and  _20
REMARK   10  A    between atoms: _22  and  _24
REMARK   11  A    between atoms: _24  and  _25
REMARK   12  A    between atoms: _24  and  _27
REMARK   13  A    between atoms: _30  and  _32
REMARK   14  A    between atoms: _32  and  _33
REMARK   15  A    between atoms: _36  and  _38
REMARK   16  A    between atoms: _38  and  _39
REMARK   17  A    between atoms: _38  and  _41
REMARK   18  A    between atoms: _41  and  _42
REMARK   19  A    between atoms: _42  and  _43
REMARK   20  A    between atoms: _45  and  _47
REMARK   21  A    between atoms: _47  and  _48
REMARK   22  A    between atoms: _47  and  _50
REMARK   23  A    between atoms: _50  and  _51
REMARK   24  A    between atoms: _54  and  _56
REMARK   25  A    between atoms: _56  and  _57
REMARK   26  A    between atoms: _59  and  _61
REMARK   27  A    between atoms: _61  and  _62
REMARK   28  A    between atoms: _61  and  _64
REMARK   29  A    between atoms: _64  and  _65
REMARK   30  A    between atoms: _65  and  _66
REMARK   31  A    between atoms: _66  and  _67
REMARK   32  A    between atoms: _67  and  _68
REMARK   33  A    between atoms: _72  and  _74
REMARK   34  A    between atoms: _74  and  _75
REMARK   35  A    between atoms: _74  and  _77
REMARK   36  A    between atoms: _77  and  _78
REMARK   37  A    between atoms: _81  and  _83
REMARK   38  A    between atoms: _83  and  _84
REMARK   39  A    between atoms: _83  and  _86
REMARK   40  A    between atoms: _86  and  _87
REMARK   41  A    between atoms: _92  and  _94
REMARK   42  A    between atoms: _94  and  _95
REMARK   43  A    between atoms: _94  and  _97
REMARK   44  A    between atoms: _97  and  _98
REMARK   45  A    between atoms: _103  and  _105
REMARK   46  A    between atoms: _105  and  _106
REMARK   47  A    between atoms: _105  and  _108
REMARK   48  A    between atoms: _108  and  _109
REMARK   49  A    between atoms: _113  and  _114
REMARK   50  A    between atoms: _119  and  _121
REMARK   51  A    between atoms: _121  and  _122
REMARK   52  A    between atoms: _121  and  _124
REMARK   53  A    between atoms: _124  and  _125
REMARK   54  A    between atoms: _135  and  _137
REMARK   55  A    between atoms: _137  and  _138
REMARK   56  A    between atoms: _137  and  _140
REMARK   57  A    between atoms: _140  and  _141
REMARK   58  A    between atoms: _141  and  _142
REMARK   59  A    between atoms: _142  and  _143
REMARK   60  A    between atoms: _152  and  _154
REMARK   61  A    between atoms: _154  and  _155
REMARK   62  A    between atoms: _154  and  _157
REMARK   63  A    between atoms: _157  and  _158
REMARK   64  A    between atoms: _162  and  _163
REMARK   65  A    between atoms: _168  and  _170
REMARK   66  A    between atoms: _170  and  _171
REMARK   67  A    between atoms: _170  and  _173
REMARK   68  A    between atoms: _173  and  _174
REMARK   69  A    between atoms: _176  and  _178
REMARK   70  A    between atoms: _178  and  _179
REMARK   71  A    between atoms: _178  and  _181
REMARK   72  A    between atoms: _181  and  _182
REMARK   73  A    between atoms: _182  and  _183
REMARK   74  A    between atoms: _186  and  _188
REMARK   75  A    between atoms: _188  and  _189
REMARK   76  A    between atoms: _188  and  _191
REMARK   77  A    between atoms: _191  and  _192
REMARK   78  A    between atoms: _195  and  _197
REMARK   79  A    between atoms: _197  and  _198
REMARK   80  A    between atoms: _197  and  _200
REMARK   81  A    between atoms: _200  and  _201
REMARK   82  A    between atoms: _201  and  _202
REMARK   83  A    between atoms: _207  and  _209
REMARK   84  A    between atoms: _209  and  _210
REMARK   85  A    between atoms: _209  and  _212
REMARK   86  A    between atoms: _212  and  _213
REMARK   87  A    between atoms: _218  and  _219
REMARK   88  A    between atoms: _221  and  _223
REMARK   89  A    between atoms: _223  and  _224
REMARK   90  A    between atoms: _223  and  _226
REMARK   91  A    between atoms: _229  and  _231
REMARK   92  A    between atoms: _231  and  _232
REMARK   93  A    between atoms: _231  and  _234
REMARK   94  A    between atoms: _234  and  _235
REMARK   95  A    between atoms: _235  and  _236
REMARK   96  A    between atoms: _236  and  _237
REMARK   97  A    between atoms: _237  and  _238
REMARK   98  A    between atoms: _242  and  _244
REMARK   99  A    between atoms: _244  and  _245
REMARK  100  A    between atoms: _244  and  _247
REMARK  101  A    between atoms: _247  and  _248
REMARK  102  A    between atoms: _248  and  _249
REMARK  103  A    between atoms: _249  and  _250
REMARK  104  A    between atoms: _250  and  _251
REMARK  105  A    between atoms: _255  and  _257
REMARK  106  A    between atoms: _257  and  _258
REMARK  107  A    between atoms: _257  and  _260
REMARK  108  A    between atoms: _260  and  _261
REMARK  109  A    between atoms: _264  and  _266
REMARK  110  A    between atoms: _266  and  _267
REMARK  111  A    between atoms: _266  and  _269
REMARK  112  A    between atoms: _269  and  _270
REMARK  113  A    between atoms: _273  and  _275
REMARK  114  A    between atoms: _275  and  _276
REMARK  115  A    between atoms: _275  and  _278
REMARK  116  A    between atoms: _278  and  _279
REMARK  117  A    between atoms: _279  and  _280
REMARK  118  A    between atoms: _282  and  _284
REMARK  119  A    between atoms: _284  and  _285
REMARK  120  A    between atoms: _287  and  _289
REMARK  121  A    between atoms: _289  and  _290
REMARK  122  A    between atoms: _289  and  _292
REMARK  123  A    between atoms: _292  and  _293
REMARK  124  A    between atoms: _298  and  _300
REMARK  125  A    between atoms: _300  and  _301
REMARK  126  A    between atoms: _300  and  _303
REMARK  127  A    between atoms: _303  and  _304
REMARK  128  A    between atoms: _307  and  _309
REMARK  129  A    between atoms: _309  and  _310
REMARK  130  A    between atoms: _309  and  _312
REMARK  131  A    between atoms: _312  and  _313
REMARK  132  A    between atoms: _316  and  _318
REMARK  133  A    between atoms: _318  and  _319
REMARK  134  A    between atoms: _318  and  _321
REMARK  135  A    between atoms: _321  and  _322
REMARK  136  A    between atoms: _322  and  _323
REMARK  137  A    between atoms: _325  and  _327
REMARK  138  A    between atoms: _327  and  _328
REMARK  139  A    between atoms: _327  and  _330
REMARK  140  A    between atoms: _330  and  _331
REMARK  141  A    between atoms: _331  and  _332
REMARK  142  A    between atoms: _332  and  _333
REMARK  143  A    between atoms: _333  and  _334
REMARK  144  A    between atoms: _338  and  _340
REMARK  145  A    between atoms: _340  and  _341
REMARK  146  A    between atoms: _340  and  _343
REMARK  147  A    between atoms: _343  and  _344
REMARK  148  A    between atoms: _349  and  _351
REMARK  149  A    between atoms: _351  and  _352
REMARK  150  A    between atoms: _351  and  _354
REMARK  151  A    between atoms: _354  and  _355
REMARK  152  A    between atoms: _360  and  _361
REMARK  153  A    between atoms: _363  and  _365
REMARK  154  A    between atoms: _365  and  _366
REMARK  155  A    between atoms: _365  and  _368
REMARK  156  A    between atoms: _368  and  _369
REMARK  157  A    between atoms: _369  and  _370
REMARK  158  A    between atoms: _373  and  _375
REMARK  159  A    between atoms: _375  and  _376
REMARK  160  A    between atoms: _379  and  _381
REMARK  161  A    between atoms: _381  and  _382
REMARK  162  A    between atoms: _381  and  _384
REMARK  163  A    between atoms: _384  and  _385
REMARK  164  A    between atoms: _388  and  _390
REMARK  165  A    between atoms: _390  and  _391
REMARK  166  A    between atoms: _393  and  _395
REMARK  167  A    between atoms: _395  and  _396
REMARK  168  A    between atoms: _395  and  _398
REMARK  169  A    between atoms: _398  and  _399
REMARK  170  A    between atoms: _399  and  _400
REMARK  171  A    between atoms: _400  and  _401
REMARK  172  A    between atoms: _411  and  _412
REMARK  173  A    between atoms: _417  and  _419
REMARK  174  A    between atoms: _419  and  _420
REMARK  175  A    between atoms: _419  and  _422
REMARK  176  A    between atoms: _422  and  _423
REMARK  177  A    between atoms: _427  and  _428
REMARK  178  A    between atoms: _433  and  _435
REMARK  179  A    between atoms: _435  and  _436
REMARK  180  A    between atoms: _438  and  _440
REMARK  181  A    between atoms: _440  and  _441
REMARK  182  A    between atoms: _440  and  _443
REMARK  183  A    between atoms: _443  and  _444
REMARK  184  A    between atoms: _444  and  _445
REMARK  185  A    between atoms: _445  and  _446
REMARK  186  A    between atoms: _455  and  _457
REMARK  187  A    between atoms: _457  and  _458
REMARK  188  A    between atoms: _457  and  _460
REMARK  189  A    between atoms: _460  and  _461
REMARK  190  A    between atoms: _466  and  _468
REMARK  191  A    between atoms: _468  and  _469
REMARK  192  A    between atoms: _468  and  _471
REMARK  193  A    between atoms: _471  and  _472
REMARK  194  A    between atoms: _478  and  _480
REMARK  195  A    between atoms: _480  and  _481
REMARK  196  A    between atoms: _480  and  _483
REMARK  197  A    between atoms: _483  and  _484
REMARK  198  A    between atoms: _487  and  _489
REMARK  199  A    between atoms: _489  and  _490
REMARK  200  A    between atoms: _489  and  _492
REMARK  201  A    between atoms: _492  and  _493
REMARK  202  A    between atoms: _499  and  _501
REMARK  203  A    between atoms: _501  and  _502
REMARK  204  A    between atoms: _504  and  _506
REMARK  205  A    between atoms: _506  and  _507
REMARK  206  A    between atoms: _509  and  _511
REMARK  207  A    between atoms: _511  and  _512
REMARK  208  A    between atoms: _511  and  _514
REMARK  209  A    between atoms: _514  and  _515
REMARK  210  A    between atoms: _520  and  _521
REMARK  211  A    between atoms: _523  and  _525
REMARK  212  A    between atoms: _525  and  _526
REMARK  213  A    between atoms: _525  and  _528
REMARK  214  A    between atoms: _528  and  _529
REMARK  215  A    between atoms: _534  and  _535
REMARK  216  A    between atoms: _537  and  _539
REMARK  217  A    between atoms: _539  and  _540
REMARK  218  A    between atoms: _539  and  _542
REMARK  219  A    between atoms: _542  and  _543
REMARK  220  A    between atoms: _546  and  _548
REMARK  221  A    between atoms: _548  and  _549
REMARK  222  A    between atoms: _548  and  _551
REMARK  223  A    between atoms: _551  and  _552
REMARK  224  A    between atoms: _555  and  _557
REMARK  225  A    between atoms: _557  and  _558
REMARK  226  A    between atoms: _557  and  _560
REMARK  227  A    between atoms: _560  and  _561
REMARK  228  A    between atoms: _561  and  _562
REMARK  229  A    between atoms: _562  and  _563
REMARK  230  A    between atoms: _563  and  _564
REMARK  231  A    between atoms: _568  and  _570
REMARK  232  A    between atoms: _570  and  _571
REMARK  233  A    between atoms: _570  and  _573
REMARK  234  A    between atoms: _573  and  _574
REMARK  235  A    between atoms: _577  and  _579
REMARK  236  A    between atoms: _579  and  _580
REMARK  237  A    between atoms: _579  and  _582
REMARK  238  A    between atoms: _582  and  _583
REMARK  239  A    between atoms: _586  and  _588
REMARK  240  A    between atoms: _588  and  _589
REMARK  241  A    between atoms: _588  and  _591
REMARK  242  A    between atoms: _591  and  _592
REMARK  243  A    between atoms: _597  and  _598
REMARK  244  A    between atoms: _600  and  _602
REMARK  245  A    between atoms: _602  and  _603
REMARK  246  A    between atoms: _602  and  _605
REMARK  247  A    between atoms: _605  and  _606
REMARK                            x       y       z     vdW  Elec       q    Type
REMARK                         _______ _______ _______ _____ _____    ______ ____
ROOT
ATOM      1  O   HOH     1      10.273 -26.074  -4.922  0.00  0.00    +0.000 OA
ENDROOT
TORSDOF 0
REMARK  Name = ../refined-set-2016/4elg/4elg_pocket.pdb
REMARK  247 active torsions:
REMARK  status: ('A' for Active; 'I' for Inactive)
REMARK    1  A    between atoms: _1  and  _3
REMARK    2  A    between atoms: _3  and  _4
REMARK    3  A    between atoms: _3  and  _6
REMARK    4  A    between atoms: _6  and  _7
REMARK    5  A    between atoms: _13  and  _15
REMARK    6  A    between atoms: _15  and  _16
REMARK    7  A    between atoms: _15  and  _18
REMARK    8  A    between atoms: _18  and  _19
REMARK    9  A    between atoms: _19  and  _20
REMARK   10  A    between atoms: _22  and  _24
REMARK   11  A    between atoms: _24  and  _25
REMARK   12  A    between atoms: _24  and  _27
REMARK   13  A    between atoms: _30  and  _32
REMARK   14  A    between atoms: _32  and  _33
REMARK   15  A    between atoms: _36  and  _38
REMARK   16  A    between atoms: _38  and  _39
REMARK   17  A    between atoms: _38  and  _41
REMARK   18  A    between atoms: _41  and  _42
REMARK   19  A    between atoms: _42  and  _43
REMARK   20  A    between atoms: _45  and  _47
REMARK   21  A    between atoms: _47  and  _48
REMARK   22  A    between atoms: _47  and  _50
REMARK   23  A    between atoms: _50  and  _51
REMARK   24  A    between atoms: _54  and  _56
REMARK   25  A    between atoms: _56  and  _57
REMARK   26  A    between atoms: _59  and  _61
REMARK   27  A    between atoms: _61  and  _62
REMARK   28  A    between atoms: _61  and  _64
REMARK   29  A    between atoms: _64  and  _65
REMARK   30  A    between atoms: _65  and  _66
REMARK   31  A    between atoms: _66  and  _67
REMARK   32  A    between atoms: _67  and  _68
REMARK   33  A    between atoms: _72  and  _74
REMARK   34  A    between atoms: _74  and  _75
REMARK   35  A    between atoms: _74  and  _77
REMARK   36  A    between atoms: _77  and  _78
REMARK   37  A    between atoms: _81  and  _83
REMARK   38  A    between atoms: _83  and  _84
REMARK   39  A    between atoms: _83  and  _86
REMARK   40  A    between atoms: _86  and  _87
REMARK   41  A    between atoms: _92  and  _94
REMARK   42  A    between atoms: _94  and  _95
REMARK   43  A    between atoms: _94  and  _97
REMARK   44  A    between atoms: _97  and  _98
REMARK   45  A    between atoms: _103  and  _105
REMARK   46  A    between atoms: _105  and  _106
REMARK   47  A    between atoms: _105  and  _108
REMARK   48  A    between atoms: _108  and  _109
REMARK   49  A    between atoms: _113  and  _114
REMARK   50  A    between atoms: _119  and  _121
REMARK   51  A    between atoms: _121  and  _122
REMARK   52  A    between atoms: _121  and  _124
REMARK   53  A    between atoms: _124  and  _125
REMARK   54  A    between atoms: _135  and  _137
REMARK   55  A    between atoms: _137  and  _138
REMARK   56  A    between atoms: _137  and  _140
REMARK   57  A    between atoms: _140  and  _141
REMARK   58  A    between atoms: _141  and  _142
REMARK   59  A    between atoms: _142  and  _143
REMARK   60  A    between atoms: _152  and  _154
REMARK   61  A    between atoms: _154  and  _155
REMARK   62  A    between atoms: _154  and  _157
REMARK   63  A    between atoms: _157  and  _158
REMARK   64  A    between atoms: _162  and  _163
REMARK   65  A    between atoms: _168  and  _170
REMARK   66  A    between atoms: _170  and  _171
REMARK   67  A    between atoms: _170  and  _173
REMARK   68  A    between atoms: _173  and  _174
REMARK   69  A    between atoms: _176  and  _178
REMARK   70  A    between atoms: _178  and  _179
REMARK   71  A    between atoms: _178  and  _181
REMARK   72  A    between atoms: _181  and  _182
REMARK   73  A    between atoms: _182  and  _183
REMARK   74  A    between atoms: _186  and  _188
REMARK   75  A    between atoms: _188  and  _189
REMARK   76  A    between atoms: _188  and  _191
REMARK   77  A    between atoms: _191  and  _192
REMARK   78  A    between atoms: _195  and  _197
REMARK   79  A    between atoms: _197  and  _198
REMARK   80  A    between atoms: _197  and  _200
REMARK   81  A    between atoms: _200  and  _201
REMARK   82  A    between atoms: _201  and  _202
REMARK   83  A    between atoms: _207  and  _209
REMARK   84  A    between atoms: _209  and  _210
REMARK   85  A    between atoms: _209  and  _212
REMARK   86  A    between atoms: _212  and  _213
REMARK   87  A    between atoms: _218  and  _219
REMARK   88  A    between atoms: _221  and  _223
REMARK   89  A    between atoms: _223  and  _224
REMARK   90  A    between atoms: _223  and  _226
REMARK   91  A    between atoms: _229  and  _231
REMARK   92  A    between atoms: _231  and  _232
REMARK   93  A    between atoms: _231  and  _234
REMARK   94  A    between atoms: _234  and  _235
REMARK   95  A    between atoms: _235  and  _236
REMARK   96  A    between atoms: _236  and  _237
REMARK   97  A    between atoms: _237  and  _238
REMARK   98  A    between atoms: _242  and  _244
REMARK   99  A    between atoms: _244  and  _245
REMARK  100  A    between atoms: _244  and  _247
REMARK  101  A    between atoms: _247  and  _248
REMARK  102  A    between atoms: _248  and  _249
REMARK  103  A    between atoms: _249  and  _250
REMARK  104  A    between atoms: _250  and  _251
REMARK  105  A    between atoms: _255  and  _257
REMARK  106  A    between atoms: _257  and  _258
REMARK  107  A    between atoms: _257  and  _260
REMARK  108  A    between atoms: _260  and  _261
REMARK  109  A    between atoms: _264  and  _266
REMARK  110  A    between atoms: _266  and  _267
REMARK  111  A    between atoms: _266  and  _269
REMARK  112  A    between atoms: _269  and  _270
REMARK  113  A    between atoms: _273  and  _275
REMARK  114  A    between atoms: _275  and  _276
REMARK  115  A    between atoms: _275  and  _278
REMARK  116  A    between atoms: _278  and  _279
REMARK  117  A    between atoms: _279  and  _280
REMARK  118  A    between atoms: _282  and  _284
REMARK  119  A    between atoms: _284  and  _285
REMARK  120  A    between atoms: _287  and  _289
REMARK  121  A    between atoms: _289  and  _290
REMARK  122  A    between atoms: _289  and  _292
REMARK  123  A    between atoms: _292  and  _293
REMARK  124  A    between atoms: _298  and  _300
REMARK  125  A    between atoms: _300  and  _301
REMARK  126  A    between atoms: _300  and  _303
REMARK  127  A    between atoms: _303  and  _304
REMARK  128  A    between atoms: _307  and  _309
REMARK  129  A    between atoms: _309  and  _310
REMARK  130  A    between atoms: _309  and  _312
REMARK  131  A    between atoms: _312  and  _313
REMARK  132  A    between atoms: _316  and  _318
REMARK  133  A    between atoms: _318  and  _319
REMARK  134  A    between atoms: _318  and  _321
REMARK  135  A    between atoms: _321  and  _322
REMARK  136  A    between atoms: _322  and  _323
REMARK  137  A    between atoms: _325  and  _327
REMARK  138  A    between atoms: _327  and  _328
REMARK  139  A    between atoms: _327  and  _330
REMARK  140  A    between atoms: _330  and  _331
REMARK  141  A    between atoms: _331  and  _332
REMARK  142  A    between atoms: _332  and  _333
REMARK  143  A    between atoms: _333  and  _334
REMARK  144  A    between atoms: _338  and  _340
REMARK  145  A    between atoms: _340  and  _341
REMARK  146  A    between atoms: _340  and  _343
REMARK  147  A    between atoms: _343  and  _344
REMARK  148  A    between atoms: _349  and  _351
REMARK  149  A    between atoms: _351  and  _352
REMARK  150  A    between atoms: _351  and  _354
REMARK  151  A    between atoms: _354  and  _355
REMARK  152  A    between atoms: _360  and  _361
REMARK  153  A    between atoms: _363  and  _365
REMARK  154  A    between atoms: _365  and  _366
REMARK  155  A    between atoms: _365  and  _368
REMARK  156  A    between atoms: _368  and  _369
REMARK  157  A    between atoms: _369  and  _370
REMARK  158  A    between atoms: _373  and  _375
REMARK  159  A    between atoms: _375  and  _376
REMARK  160  A    between atoms: _379  and  _381
REMARK  161  A    between atoms: _381  and  _382
REMARK  162  A    between atoms: _381  and  _384
REMARK  163  A    between atoms: _384  and  _385
REMARK  164  A    between atoms: _388  and  _390
REMARK  165  A    between atoms: _390  and  _391
REMARK  166  A    between atoms: _393  and  _395
REMARK  167  A    between atoms: _395  and  _396
REMARK  168  A    between atoms: _395  and  _398
REMARK  169  A    between atoms: _398  and  _399
REMARK  170  A    between atoms: _399  and  _400
REMARK  171  A    between atoms: _400  and  _401
REMARK  172  A    between atoms: _411  and  _412
REMARK  173  A    between atoms: _417  and  _419
REMARK  174  A    between atoms: _419  and  _420
REMARK  175  A    between atoms: _419  and  _422
REMARK  176  A    between atoms: _422  and  _423
REMARK  177  A    between atoms: _427  and  _428
REMARK  178  A    between atoms: _433  and  _435
REMARK  179  A    between atoms: _435  and  _436
REMARK  180  A    between atoms: _438  and  _440
REMARK  181  A    between atoms: _440  and  _441
REMARK  182  A    between atoms: _440  and  _443
REMARK  183  A    between atoms: _443  and  _444
REMARK  184  A    between atoms: _444  and  _445
REMARK  185  A    between atoms: _445  and  _446
REMARK  186  A    between atoms: _455  and  _457
REMARK  187  A    between atoms: _457  and  _458
REMARK  188  A    between atoms: _457  and  _460
REMARK  189  A    between atoms: _460  and  _461
REMARK  190  A    between atoms: _466  and  _468
REMARK  191  A    between atoms: _468  and  _469
REMARK  192  A    between atoms: _468  and  _471
REMARK  193  A    between atoms: _471  and  _472
REMARK  194  A    between atoms: _478  and  _480
REMARK  195  A    between atoms: _480  and  _481
REMARK  196  A    between atoms: _480  and  _483
REMARK  197  A    between atoms: _483  and  _484
REMARK  198  A    between atoms: _487  and  _489
REMARK  199  A    between atoms: _489  and  _490
REMARK  200  A    between atoms: _489  and  _492
REMARK  201  A    between atoms: _492  and  _493
REMARK  202  A    between atoms: _499  and  _501
REMARK  203  A    between atoms: _501  and  _502
REMARK  204  A    between atoms: _504  and  _506
REMARK  205  A    between atoms: _506  and  _507
REMARK  206  A    between atoms: _509  and  _511
REMARK  207  A    between atoms: _511  and  _512
REMARK  208  A    between atoms: _511  and  _514
REMARK  209  A    between atoms: _514  and  _515
REMARK  210  A    between atoms: _520  and  _521
REMARK  211  A    between atoms: _523  and  _525
REMARK  212  A    between atoms: _525  and  _526
REMARK  213  A    between atoms: _525  and  _528
REMARK  214  A    between atoms: _528  and  _529
REMARK  215  A    between atoms: _534  and  _535
REMARK  216  A    between atoms: _537  and  _539
REMARK  217  A    between atoms: _539  and  _540
REMARK  218  A    between atoms: _539  and  _542
REMARK  219  A    between atoms: _542  and  _543
REMARK  220  A    between atoms: _546  and  _548
REMARK  221  A    between atoms: _548  and  _549
REMARK  222  A    between atoms: _548  and  _551
REMARK  223  A    between atoms: _551  and  _552
REMARK  224  A    between atoms: _555  and  _557
REMARK  225  A    between atoms: _557  and  _558
REMARK  226  A    between atoms: _557  and  _560
REMARK  227  A    between atoms: _560  and  _561
REMARK  228  A    between atoms: _561  and  _562
REMARK  229  A    between atoms: _562  and  _563
REMARK  230  A    between atoms: _563  and  _564
REMARK  231  A    between atoms: _568  and  _570
REMARK  232  A    between atoms: _570  and  _571
REMARK  233  A    between atoms: _570  and  _573
REMARK  234  A    between atoms: _573  and  _574
REMARK  235  A    between atoms: _577  and  _579
REMARK  236  A    between atoms: _579  and  _580
REMARK  237  A    between atoms: _579  and  _582
REMARK  238  A    between atoms: _582  and  _583
REMARK  239  A    between atoms: _586  and  _588
REMARK  240  A    between atoms: _588  and  _589
REMARK  241  A    between atoms: _588  and  _591
REMARK  242  A    between atoms: _591  and  _592
REMARK  243  A    between atoms: _597  and  _598
REMARK  244  A    between atoms: _600  and  _602
REMARK  245  A    between atoms: _602  and  _603
REMARK  246  A    between atoms: _602  and  _605
REMARK  247  A    between atoms: _605  and  _606
REMARK                            x       y       z     vdW  Elec       q    Type
REMARK                         _______ _______ _______ _____ _____    ______ ____
ROOT
ATOM      1  O   HOH     1      12.425 -31.701  -3.987  0.00  0.00    +0.000 OA
ENDROOT
TORSDOF 0
REMARK  Name = ../refined-set-2016/4elg/4elg_pocket.pdb
REMARK  247 active torsions:
REMARK  status: ('A' for Active; 'I' for Inactive)
REMARK    1  A    between atoms: _1  and  _3
REMARK    2  A    between atoms: _3  and  _4
REMARK    3  A    between atoms: _3  and  _6
REMARK    4  A    between atoms: _6  and  _7
REMARK    5  A    between atoms: _13  and  _15
REMARK    6  A    between atoms: _15  and  _16
REMARK    7  A    between atoms: _15  and  _18
REMARK    8  A    between atoms: _18  and  _19
REMARK    9  A    between atoms: _19  and  _20
REMARK   10  A    between atoms: _22  and  _24
REMARK   11  A    between atoms: _24  and  _25
REMARK   12  A    between atoms: _24  and  _27
REMARK   13  A    between atoms: _30  and  _32
REMARK   14  A    between atoms: _32  and  _33
REMARK   15  A    between atoms: _36  and  _38
REMARK   16  A    between atoms: _38  and  _39
REMARK   17  A    between atoms: _38  and  _41
REMARK   18  A    between atoms: _41  and  _42
REMARK   19  A    between atoms: _42  and  _43
REMARK   20  A    between atoms: _45  and  _47
REMARK   21  A    between atoms: _47  and  _48
REMARK   22  A    between atoms: _47  and  _50
REMARK   23  A    between atoms: _50  and  _51
REMARK   24  A    between atoms: _54  and  _56
REMARK   25  A    between atoms: _56  and  _57
REMARK   26  A    between atoms: _59  and  _61
REMARK   27  A    between atoms: _61  and  _62
REMARK   28  A    between atoms: _61  and  _64
REMARK   29  A    between atoms: _64  and  _65
REMARK   30  A    between atoms: _65  and  _66
REMARK   31  A    between atoms: _66  and  _67
REMARK   32  A    between atoms: _67  and  _68
REMARK   33  A    between atoms: _72  and  _74
REMARK   34  A    between atoms: _74  and  _75
REMARK   35  A    between atoms: _74  and  _77
REMARK   36  A    between atoms: _77  and  _78
REMARK   37  A    between atoms: _81  and  _83
REMARK   38  A    between atoms: _83  and  _84
REMARK   39  A    between atoms: _83  and  _86
REMARK   40  A    between atoms: _86  and  _87
REMARK   41  A    between atoms: _92  and  _94
REMARK   42  A    between atoms: _94  and  _95
REMARK   43  A    between atoms: _94  and  _97
REMARK   44  A    between atoms: _97  and  _98
REMARK   45  A    between atoms: _103  and  _105
REMARK   46  A    between atoms: _105  and  _106
REMARK   47  A    between atoms: _105  and  _108
REMARK   48  A    between atoms: _108  and  _109
REMARK   49  A    between atoms: _113  and  _114
REMARK   50  A    between atoms: _119  and  _121
REMARK   51  A    between atoms: _121  and  _122
REMARK   52  A    between atoms: _121  and  _124
REMARK   53  A    between atoms: _124  and  _125
REMARK   54  A    between atoms: _135  and  _137
REMARK   55  A    between atoms: _137  and  _138
REMARK   56  A    between atoms: _137  and  _140
REMARK   57  A    between atoms: _140  and  _141
REMARK   58  A    between atoms: _141  and  _142
REMARK   59  A    between atoms: _142  and  _143
REMARK   60  A    between atoms: _152  and  _154
REMARK   61  A    between atoms: _154  and  _155
REMARK   62  A    between atoms: _154  and  _157
REMARK   63  A    between atoms: _157  and  _158
REMARK   64  A    between atoms: _162  and  _163
REMARK   65  A    between atoms: _168  and  _170
REMARK   66  A    between atoms: _170  and  _171
REMARK   67  A    between atoms: _170  and  _173
REMARK   68  A    between atoms: _173  and  _174
REMARK   69  A    between atoms: _176  and  _178
REMARK   70  A    between atoms: _178  and  _179
REMARK   71  A    between atoms: _178  and  _181
REMARK   72  A    between atoms: _181  and  _182
REMARK   73  A    between atoms: _182  and  _183
REMARK   74  A    between atoms: _186  and  _188
REMARK   75  A    between atoms: _188  and  _189
REMARK   76  A    between atoms: _188  and  _191
REMARK   77  A    between atoms: _191  and  _192
REMARK   78  A    between atoms: _195  and  _197
REMARK   79  A    between atoms: _197  and  _198
REMARK   80  A    between atoms: _197  and  _200
REMARK   81  A    between atoms: _200  and  _201
REMARK   82  A    between atoms: _201  and  _202
REMARK   83  A    between atoms: _207  and  _209
REMARK   84  A    between atoms: _209  and  _210
REMARK   85  A    between atoms: _209  and  _212
REMARK   86  A    between atoms: _212  and  _213
REMARK   87  A    between atoms: _218  and  _219
REMARK   88  A    between atoms: _221  and  _223
REMARK   89  A    between atoms: _223  and  _224
REMARK   90  A    between atoms: _223  and  _226
REMARK   91  A    between atoms: _229  and  _231
REMARK   92  A    between atoms: _231  and  _232
REMARK   93  A    between atoms: _231  and  _234
REMARK   94  A    between atoms: _234  and  _235
REMARK   95  A    between atoms: _235  and  _236
REMARK   96  A    between atoms: _236  and  _237
REMARK   97  A    between atoms: _237  and  _238
REMARK   98  A    between atoms: _242  and  _244
REMARK   99  A    between atoms: _244  and  _245
REMARK  100  A    between atoms: _244  and  _247
REMARK  101  A    between atoms: _247  and  _248
REMARK  102  A    between atoms: _248  and  _249
REMARK  103  A    between atoms: _249  and  _250
REMARK  104  A    between atoms: _250  and  _251
REMARK  105  A    between atoms: _255  and  _257
REMARK  106  A    between atoms: _257  and  _258
REMARK  107  A    between atoms: _257  and  _260
REMARK  108  A    between atoms: _260  and  _261
REMARK  109  A    between atoms: _264  and  _266
REMARK  110  A    between atoms: _266  and  _267
REMARK  111  A    between atoms: _266  and  _269
REMARK  112  A    between atoms: _269  and  _270
REMARK  113  A    between atoms: _273  and  _275
REMARK  114  A    between atoms: _275  and  _276
REMARK  115  A    between atoms: _275  and  _278
REMARK  116  A    between atoms: _278  and  _279
REMARK  117  A    between atoms: _279  and  _280
REMARK  118  A    between atoms: _282  and  _284
REMARK  119  A    between atoms: _284  and  _285
REMARK  120  A    between atoms: _287  and  _289
REMARK  121  A    between atoms: _289  and  _290
REMARK  122  A    between atoms: _289  and  _292
REMARK  123  A    between atoms: _292  and  _293
REMARK  124  A    between atoms: _298  and  _300
REMARK  125  A    between atoms: _300  and  _301
REMARK  126  A    between atoms: _300  and  _303
REMARK  127  A    between atoms: _303  and  _304
REMARK  128  A    between atoms: _307  and  _309
REMARK  129  A    between atoms: _309  and  _310
REMARK  130  A    between atoms: _309  and  _312
REMARK  131  A    between atoms: _312  and  _313
REMARK  132  A    between atoms: _316  and  _318
REMARK  133  A    between atoms: _318  and  _319
REMARK  134  A    between atoms: _318  and  _321
REMARK  135  A    between atoms: _321  and  _322
REMARK  136  A    between atoms: _322  and  _323
REMARK  137  A    between atoms: _325  and  _327
REMARK  138  A    between atoms: _327  and  _328
REMARK  139  A    between atoms: _327  and  _330
REMARK  140  A    between atoms: _330  and  _331
REMARK  141  A    between atoms: _331  and  _332
REMARK  142  A    between atoms: _332  and  _333
REMARK  143  A    between atoms: _333  and  _334
REMARK  144  A    between atoms: _338  and  _340
REMARK  145  A    between atoms: _340  and  _341
REMARK  146  A    between atoms: _340  and  _343
REMARK  147  A    between atoms: _343  and  _344
REMARK  148  A    between atoms: _349  and  _351
REMARK  149  A    between atoms: _351  and  _352
REMARK  150  A    between atoms: _351  and  _354
REMARK  151  A    between atoms: _354  and  _355
REMARK  152  A    between atoms: _360  and  _361
REMARK  153  A    between atoms: _363  and  _365
REMARK  154  A    between atoms: _365  and  _366
REMARK  155  A    between atoms: _365  and  _368
REMARK  156  A    between atoms: _368  and  _369
REMARK  157  A    between atoms: _369  and  _370
REMARK  158  A    between atoms: _373  and  _375
REMARK  159  A    between atoms: _375  and  _376
REMARK  160  A    between atoms: _379  and  _381
REMARK  161  A    between atoms: _381  and  _382
REMARK  162  A    between atoms: _381  and  _384
REMARK  163  A    between atoms: _384  and  _385
REMARK  164  A    between atoms: _388  and  _390
REMARK  165  A    between atoms: _390  and  _391
REMARK  166  A    between atoms: _393  and  _395
REMARK  167  A    between atoms: _395  and  _396
REMARK  168  A    between atoms: _395  and  _398
REMARK  169  A    between atoms: _398  and  _399
REMARK  170  A    between atoms: _399  and  _400
REMARK  171  A    between atoms: _400  and  _401
REMARK  172  A    between atoms: _411  and  _412
REMARK  173  A    between atoms: _417  and  _419
REMARK  174  A    between atoms: _419  and  _420
REMARK  175  A    between atoms: _419  and  _422
REMARK  176  A    between atoms: _422  and  _423
REMARK  177  A    between atoms: _427  and  _428
REMARK  178  A    between atoms: _433  and  _435
REMARK  179  A    between atoms: _435  and  _436
REMARK  180  A    between atoms: _438  and  _440
REMARK  181  A    between atoms: _440  and  _441
REMARK  182  A    between atoms: _440  and  _443
REMARK  183  A    between atoms: _443  and  _444
REMARK  184  A    between atoms: _444  and  _445
REMARK  185  A    between atoms: _445  and  _446
REMARK  186  A    between atoms: _455  and  _457
REMARK  187  A    between atoms: _457  and  _458
REMARK  188  A    between atoms: _457  and  _460
REMARK  189  A    between atoms: _460  and  _461
REMARK  190  A    between atoms: _466  and  _468
REMARK  191  A    between atoms: _468  and  _469
REMARK  192  A    between atoms: _468  and  _471
REMARK  193  A    between atoms: _471  and  _472
REMARK  194  A    between atoms: _478  and  _480
REMARK  195  A    between atoms: _480  and  _481
REMARK  196  A    between atoms: _480  and  _483
REMARK  197  A    between atoms: _483  and  _484
REMARK  198  A    between atoms: _487  and  _489
REMARK  199  A    between atoms: _489  and  _490
REMARK  200  A    between atoms: _489  and  _492
REMARK  201  A    between atoms: _492  and  _493
REMARK  202  A    between atoms: _499  and  _501
REMARK  203  A    between atoms: _501  and  _502
REMARK  204  A    between atoms: _504  and  _506
REMARK  205  A    between atoms: _506  and  _507
REMARK  206  A    between atoms: _509  and  _511
REMARK  207  A    between atoms: _511  and  _512
REMARK  208  A    between atoms: _511  and  _514
REMARK  209  A    between atoms: _514  and  _515
REMARK  210  A    between atoms: _520  and  _521
REMARK  211  A    between atoms: _523  and  _525
REMARK  212  A    between atoms: _525  and  _526
REMARK  213  A    between atoms: _525  and  _528
REMARK  214  A    between atoms: _528  and  _529
REMARK  215  A    between atoms: _534  and  _535
REMARK  216  A    between atoms: _537  and  _539
REMARK  217  A    between atoms: _539  and  _540
REMARK  218  A    between atoms: _539  and  _542
REMARK  219  A    between atoms: _542  and  _543
REMARK  220  A    between atoms: _546  and  _548
REMARK  221  A    between atoms: _548  and  _549
REMARK  222  A    between atoms: _548  and  _551
REMARK  223  A    between atoms: _551  and  _552
REMARK  224  A    between atoms: _555  and  _557
REMARK  225  A    between atoms: _557  and  _558
REMARK  226  A    between atoms: _557  and  _560
REMARK  227  A    between atoms: _560  and  _561
REMARK  228  A    between atoms: _561  and  _562
REMARK  229  A    between atoms: _562  and  _563
REMARK  230  A    between atoms: _563  and  _564
REMARK  231  A    between atoms: _568  and  _570
REMARK  232  A    between atoms: _570  and  _571
REMARK  233  A    between atoms: _570  and  _573
REMARK  234  A    between atoms: _573  and  _574
REMARK  235  A    between atoms: _577  and  _579
REMARK  236  A    between atoms: _579  and  _580
REMARK  237  A    between atoms: _579  and  _582
REMARK  238  A    between atoms: _582  and  _583
REMARK  239  A    between atoms: _586  and  _588
REMARK  240  A    between atoms: _588  and  _589
REMARK  241  A    between atoms: _588  and  _591
REMARK  242  A    between atoms: _591  and  _592
REMARK  243  A    between atoms: _597  and  _598
REMARK  244  A    between atoms: _600  and  _602
REMARK  245  A    between atoms: _602  and  _603
REMARK  246  A    between atoms: _602  and  _605
REMARK  247  A    between atoms: _605  and  _606
REMARK                            x       y       z     vdW  Elec       q    Type
REMARK                         _______ _______ _______ _____ _____    ______ ____
ROOT
ATOM      1  O   HOH     1      27.481 -40.118  -0.059  0.00  0.00    +0.000 OA
ENDROOT
TORSDOF 0
REMARK  Name = ../refined-set-2016/4elg/4elg_pocket.pdb
REMARK  247 active torsions:
REMARK  status: ('A' for Active; 'I' for Inactive)
REMARK    1  A    between atoms: _1  and  _3
REMARK    2  A    between atoms: _3  and  _4
REMARK    3  A    between atoms: _3  and  _6
REMARK    4  A    between atoms: _6  and  _7
REMARK    5  A    between atoms: _13  and  _15
REMARK    6  A    between atoms: _15  and  _16
REMARK    7  A    between atoms: _15  and  _18
REMARK    8  A    between atoms: _18  and  _19
REMARK    9  A    between atoms: _19  and  _20
REMARK   10  A    between atoms: _22  and  _24
REMARK   11  A    between atoms: _24  and  _25
REMARK   12  A    between atoms: _24  and  _27
REMARK   13  A    between atoms: _30  and  _32
REMARK   14  A    between atoms: _32  and  _33
REMARK   15  A    between atoms: _36  and  _38
REMARK   16  A    between atoms: _38  and  _39
REMARK   17  A    between atoms: _38  and  _41
REMARK   18  A    between atoms: _41  and  _42
REMARK   19  A    between atoms: _42  and  _43
REMARK   20  A    between atoms: _45  and  _47
REMARK   21  A    between atoms: _47  and  _48
REMARK   22  A    between atoms: _47  and  _50
REMARK   23  A    between atoms: _50  and  _51
REMARK   24  A    between atoms: _54  and  _56
REMARK   25  A    between atoms: _56  and  _57
REMARK   26  A    between atoms: _59  and  _61
REMARK   27  A    between atoms: _61  and  _62
REMARK   28  A    between atoms: _61  and  _64
REMARK   29  A    between atoms: _64  and  _65
REMARK   30  A    between atoms: _65  and  _66
REMARK   31  A    between atoms: _66  and  _67
REMARK   32  A    between atoms: _67  and  _68
REMARK   33  A    between atoms: _72  and  _74
REMARK   34  A    between atoms: _74  and  _75
REMARK   35  A    between atoms: _74  and  _77
REMARK   36  A    between atoms: _77  and  _78
REMARK   37  A    between atoms: _81  and  _83
REMARK   38  A    between atoms: _83  and  _84
REMARK   39  A    between atoms: _83  and  _86
REMARK   40  A    between atoms: _86  and  _87
REMARK   41  A    between atoms: _92  and  _94
REMARK   42  A    between atoms: _94  and  _95
REMARK   43  A    between atoms: _94  and  _97
REMARK   44  A    between atoms: _97  and  _98
REMARK   45  A    between atoms: _103  and  _105
REMARK   46  A    between atoms: _105  and  _106
REMARK   47  A    between atoms: _105  and  _108
REMARK   48  A    between atoms: _108  and  _109
REMARK   49  A    between atoms: _113  and  _114
REMARK   50  A    between atoms: _119  and  _121
REMARK   51  A    between atoms: _121  and  _122
REMARK   52  A    between atoms: _121  and  _124
REMARK   53  A    between atoms: _124  and  _125
REMARK   54  A    between atoms: _135  and  _137
REMARK   55  A    between atoms: _137  and  _138
REMARK   56  A    between atoms: _137  and  _140
REMARK   57  A    between atoms: _140  and  _141
REMARK   58  A    between atoms: _141  and  _142
REMARK   59  A    between atoms: _142  and  _143
REMARK   60  A    between atoms: _152  and  _154
REMARK   61  A    between atoms: _154  and  _155
REMARK   62  A    between atoms: _154  and  _157
REMARK   63  A    between atoms: _157  and  _158
REMARK   64  A    between atoms: _162  and  _163
REMARK   65  A    between atoms: _168  and  _170
REMARK   66  A    between atoms: _170  and  _171
REMARK   67  A    between atoms: _170  and  _173
REMARK   68  A    between atoms: _173  and  _174
REMARK   69  A    between atoms: _176  and  _178
REMARK   70  A    between atoms: _178  and  _179
REMARK   71  A    between atoms: _178  and  _181
REMARK   72  A    between atoms: _181  and  _182
REMARK   73  A    between atoms: _182  and  _183
REMARK   74  A    between atoms: _186  and  _188
REMARK   75  A    between atoms: _188  and  _189
REMARK   76  A    between atoms: _188  and  _191
REMARK   77  A    between atoms: _191  and  _192
REMARK   78  A    between atoms: _195  and  _197
REMARK   79  A    between atoms: _197  and  _198
REMARK   80  A    between atoms: _197  and  _200
REMARK   81  A    between atoms: _200  and  _201
REMARK   82  A    between atoms: _201  and  _202
REMARK   83  A    between atoms: _207  and  _209
REMARK   84  A    between atoms: _209  and  _210
REMARK   85  A    between atoms: _209  and  _212
REMARK   86  A    between atoms: _212  and  _213
REMARK   87  A    between atoms: _218  and  _219
REMARK   88  A    between atoms: _221  and  _223
REMARK   89  A    between atoms: _223  and  _224
REMARK   90  A    between atoms: _223  and  _226
REMARK   91  A    between atoms: _229  and  _231
REMARK   92  A    between atoms: _231  and  _232
REMARK   93  A    between atoms: _231  and  _234
REMARK   94  A    between atoms: _234  and  _235
REMARK   95  A    between atoms: _235  and  _236
REMARK   96  A    between atoms: _236  and  _237
REMARK   97  A    between atoms: _237  and  _238
REMARK   98  A    between atoms: _242  and  _244
REMARK   99  A    between atoms: _244  and  _245
REMARK  100  A    between atoms: _244  and  _247
REMARK  101  A    between atoms: _247  and  _248
REMARK  102  A    between atoms: _248  and  _249
REMARK  103  A    between atoms: _249  and  _250
REMARK  104  A    between atoms: _250  and  _251
REMARK  105  A    between atoms: _255  and  _257
REMARK  106  A    between atoms: _257  and  _258
REMARK  107  A    between atoms: _257  and  _260
REMARK  108  A    between atoms: _260  and  _261
REMARK  109  A    between atoms: _264  and  _266
REMARK  110  A    between atoms: _266  and  _267
REMARK  111  A    between atoms: _266  and  _269
REMARK  112  A    between atoms: _269  and  _270
REMARK  113  A    between atoms: _273  and  _275
REMARK  114  A    between atoms: _275  and  _276
REMARK  115  A    between atoms: _275  and  _278
REMARK  116  A    between atoms: _278  and  _279
REMARK  117  A    between atoms: _279  and  _280
REMARK  118  A    between atoms: _282  and  _284
REMARK  119  A    between atoms: _284  and  _285
REMARK  120  A    between atoms: _287  and  _289
REMARK  121  A    between atoms: _289  and  _290
REMARK  122  A    between atoms: _289  and  _292
REMARK  123  A    between atoms: _292  and  _293
REMARK  124  A    between atoms: _298  and  _300
REMARK  125  A    between atoms: _300  and  _301
REMARK  126  A    between atoms: _300  and  _303
REMARK  127  A    between atoms: _303  and  _304
REMARK  128  A    between atoms: _307  and  _309
REMARK  129  A    between atoms: _309  and  _310
REMARK  130  A    between atoms: _309  and  _312
REMARK  131  A    between atoms: _312  and  _313
REMARK  132  A    between atoms: _316  and  _318
REMARK  133  A    between atoms: _318  and  _319
REMARK  134  A    between atoms: _318  and  _321
REMARK  135  A    between atoms: _321  and  _322
REMARK  136  A    between atoms: _322  and  _323
REMARK  137  A    between atoms: _325  and  _327
REMARK  138  A    between atoms: _327  and  _328
REMARK  139  A    between atoms: _327  and  _330
REMARK  140  A    between atoms: _330  and  _331
REMARK  141  A    between atoms: _331  and  _332
REMARK  142  A    between atoms: _332  and  _333
REMARK  143  A    between atoms: _333  and  _334
REMARK  144  A    between atoms: _338  and  _340
REMARK  145  A    between atoms: _340  and  _341
REMARK  146  A    between atoms: _340  and  _343
REMARK  147  A    between atoms: _343  and  _344
REMARK  148  A    between atoms: _349  and  _351
REMARK  149  A    between atoms: _351  and  _352
REMARK  150  A    between atoms: _351  and  _354
REMARK  151  A    between atoms: _354  and  _355
REMARK  152  A    between atoms: _360  and  _361
REMARK  153  A    between atoms: _363  and  _365
REMARK  154  A    between atoms: _365  and  _366
REMARK  155  A    between atoms: _365  and  _368
REMARK  156  A    between atoms: _368  and  _369
REMARK  157  A    between atoms: _369  and  _370
REMARK  158  A    between atoms: _373  and  _375
REMARK  159  A    between atoms: _375  and  _376
REMARK  160  A    between atoms: _379  and  _381
REMARK  161  A    between atoms: _381  and  _382
REMARK  162  A    between atoms: _381  and  _384
REMARK  163  A    between atoms: _384  and  _385
REMARK  164  A    between atoms: _388  and  _390
REMARK  165  A    between atoms: _390  and  _391
REMARK  166  A    between atoms: _393  and  _395
REMARK  167  A    between atoms: _395  and  _396
REMARK  168  A    between atoms: _395  and  _398
REMARK  169  A    between atoms: _398  and  _399
REMARK  170  A    between atoms: _399  and  _400
REMARK  171  A    between atoms: _400  and  _401
REMARK  172  A    between atoms: _411  and  _412
REMARK  173  A    between atoms: _417  and  _419
REMARK  174  A    between atoms: _419  and  _420
REMARK  175  A    between atoms: _419  and  _422
REMARK  176  A    between atoms: _422  and  _423
REMARK  177  A    between atoms: _427  and  _428
REMARK  178  A    between atoms: _433  and  _435
REMARK  179  A    between atoms: _435  and  _436
REMARK  180  A    between atoms: _438  and  _440
REMARK  181  A    between atoms: _440  and  _441
REMARK  182  A    between atoms: _440  and  _443
REMARK  183  A    between atoms: _443  and  _444
REMARK  184  A    between atoms: _444  and  _445
REMARK  185  A    between atoms: _445  and  _446
REMARK  186  A    between atoms: _455  and  _457
REMARK  187  A    between atoms: _457  and  _458
REMARK  188  A    between atoms: _457  and  _460
REMARK  189  A    between atoms: _460  and  _461
REMARK  190  A    between atoms: _466  and  _468
REMARK  191  A    between atoms: _468  and  _469
REMARK  192  A    between atoms: _468  and  _471
REMARK  193  A    between atoms: _471  and  _472
REMARK  194  A    between atoms: _478  and  _480
REMARK  195  A    between atoms: _480  and  _481
REMARK  196  A    between atoms: _480  and  _483
REMARK  197  A    between atoms: _483  and  _484
REMARK  198  A    between atoms: _487  and  _489
REMARK  199  A    between atoms: _489  and  _490
REMARK  200  A    between atoms: _489  and  _492
REMARK  201  A    between atoms: _492  and  _493
REMARK  202  A    between atoms: _499  and  _501
REMARK  203  A    between atoms: _501  and  _502
REMARK  204  A    between atoms: _504  and  _506
REMARK  205  A    between atoms: _506  and  _507
REMARK  206  A    between atoms: _509  and  _511
REMARK  207  A    between atoms: _511  and  _512
REMARK  208  A    between atoms: _511  and  _514
REMARK  209  A    between atoms: _514  and  _515
REMARK  210  A    between atoms: _520  and  _521
REMARK  211  A    between atoms: _523  and  _525
REMARK  212  A    between atoms: _525  and  _526
REMARK  213  A    between atoms: _525  and  _528
REMARK  214  A    between atoms: _528  and  _529
REMARK  215  A    between atoms: _534  and  _535
REMARK  216  A    between atoms: _537  and  _539
REMARK  217  A    between atoms: _539  and  _540
REMARK  218  A    between atoms: _539  and  _542
REMARK  219  A    between atoms: _542  and  _543
REMARK  220  A    between atoms: _546  and  _548
REMARK  221  A    between atoms: _548  and  _549
REMARK  222  A    between atoms: _548  and  _551
REMARK  223  A    between atoms: _551  and  _552
REMARK  224  A    between atoms: _555  and  _557
REMARK  225  A    between atoms: _557  and  _558
REMARK  226  A    between atoms: _557  and  _560
REMARK  227  A    between atoms: _560  and  _561
REMARK  228  A    between atoms: _561  and  _562
REMARK  229  A    between atoms: _562  and  _563
REMARK  230  A    between atoms: _563  and  _564
REMARK  231  A    between atoms: _568  and  _570
REMARK  232  A    between atoms: _570  and  _571
REMARK  233  A    between atoms: _570  and  _573
REMARK  234  A    between atoms: _573  and  _574
REMARK  235  A    between atoms: _577  and  _579
REMARK  236  A    between atoms: _579  and  _580
REMARK  237  A    between atoms: _579  and  _582
REMARK  238  A    between atoms: _582  and  _583
REMARK  239  A    between atoms: _586  and  _588
REMARK  240  A    between atoms: _588  and  _589
REMARK  241  A    between atoms: _588  and  _591
REMARK  242  A    between atoms: _591  and  _592
REMARK  243  A    between atoms: _597  and  _598
REMARK  244  A    between atoms: _600  and  _602
REMARK  245  A    between atoms: _602  and  _603
REMARK  246  A    between atoms: _602  and  _605
REMARK  247  A    between atoms: _605  and  _606
REMARK                            x       y       z     vdW  Elec       q    Type
REMARK                         _______ _______ _______ _____ _____    ______ ____
ROOT
ATOM      1  O   HOH     1      23.204 -27.850   2.221  0.00  0.00    +0.000 OA
ENDROOT
TORSDOF 0
REMARK  Name = ../refined-set-2016/4elg/4elg_pocket.pdb
REMARK  247 active torsions:
REMARK  status: ('A' for Active; 'I' for Inactive)
REMARK    1  A    between atoms: _1  and  _3
REMARK    2  A    between atoms: _3  and  _4
REMARK    3  A    between atoms: _3  and  _6
REMARK    4  A    between atoms: _6  and  _7
REMARK    5  A    between atoms: _13  and  _15
REMARK    6  A    between atoms: _15  and  _16
REMARK    7  A    between atoms: _15  and  _18
REMARK    8  A    between atoms: _18  and  _19
REMARK    9  A    between atoms: _19  and  _20
REMARK   10  A    between atoms: _22  and  _24
REMARK   11  A    between atoms: _24  and  _25
REMARK   12  A    between atoms: _24  and  _27
REMARK   13  A    between atoms: _30  and  _32
REMARK   14  A    between atoms: _32  and  _33
REMARK   15  A    between atoms: _36  and  _38
REMARK   16  A    between atoms: _38  and  _39
REMARK   17  A    between atoms: _38  and  _41
REMARK   18  A    between atoms: _41  and  _42
REMARK   19  A    between atoms: _42  and  _43
REMARK   20  A    between atoms: _45  and  _47
REMARK   21  A    between atoms: _47  and  _48
REMARK   22  A    between atoms: _47  and  _50
REMARK   23  A    between atoms: _50  and  _51
REMARK   24  A    between atoms: _54  and  _56
REMARK   25  A    between atoms: _56  and  _57
REMARK   26  A    between atoms: _59  and  _61
REMARK   27  A    between atoms: _61  and  _62
REMARK   28  A    between atoms: _61  and  _64
REMARK   29  A    between atoms: _64  and  _65
REMARK   30  A    between atoms: _65  and  _66
REMARK   31  A    between atoms: _66  and  _67
REMARK   32  A    between atoms: _67  and  _68
REMARK   33  A    between atoms: _72  and  _74
REMARK   34  A    between atoms: _74  and  _75
REMARK   35  A    between atoms: _74  and  _77
REMARK   36  A    between atoms: _77  and  _78
REMARK   37  A    between atoms: _81  and  _83
REMARK   38  A    between atoms: _83  and  _84
REMARK   39  A    between atoms: _83  and  _86
REMARK   40  A    between atoms: _86  and  _87
REMARK   41  A    between atoms: _92  and  _94
REMARK   42  A    between atoms: _94  and  _95
REMARK   43  A    between atoms: _94  and  _97
REMARK   44  A    between atoms: _97  and  _98
REMARK   45  A    between atoms: _103  and  _105
REMARK   46  A    between atoms: _105  and  _106
REMARK   47  A    between atoms: _105  and  _108
REMARK   48  A    between atoms: _108  and  _109
REMARK   49  A    between atoms: _113  and  _114
REMARK   50  A    between atoms: _119  and  _121
REMARK   51  A    between atoms: _121  and  _122
REMARK   52  A    between atoms: _121  and  _124
REMARK   53  A    between atoms: _124  and  _125
REMARK   54  A    between atoms: _135  and  _137
REMARK   55  A    between atoms: _137  and  _138
REMARK   56  A    between atoms: _137  and  _140
REMARK   57  A    between atoms: _140  and  _141
REMARK   58  A    between atoms: _141  and  _142
REMARK   59  A    between atoms: _142  and  _143
REMARK   60  A    between atoms: _152  and  _154
REMARK   61  A    between atoms: _154  and  _155
REMARK   62  A    between atoms: _154  and  _157
REMARK   63  A    between atoms: _157  and  _158
REMARK   64  A    between atoms: _162  and  _163
REMARK   65  A    between atoms: _168  and  _170
REMARK   66  A    between atoms: _170  and  _171
REMARK   67  A    between atoms: _170  and  _173
REMARK   68  A    between atoms: _173  and  _174
REMARK   69  A    between atoms: _176  and  _178
REMARK   70  A    between atoms: _178  and  _179
REMARK   71  A    between atoms: _178  and  _181
REMARK   72  A    between atoms: _181  and  _182
REMARK   73  A    between atoms: _182  and  _183
REMARK   74  A    between atoms: _186  and  _188
REMARK   75  A    between atoms: _188  and  _189
REMARK   76  A    between atoms: _188  and  _191
REMARK   77  A    between atoms: _191  and  _192
REMARK   78  A    between atoms: _195  and  _197
REMARK   79  A    between atoms: _197  and  _198
REMARK   80  A    between atoms: _197  and  _200
REMARK   81  A    between atoms: _200  and  _201
REMARK   82  A    between atoms: _201  and  _202
REMARK   83  A    between atoms: _207  and  _209
REMARK   84  A    between atoms: _209  and  _210
REMARK   85  A    between atoms: _209  and  _212
REMARK   86  A    between atoms: _212  and  _213
REMARK   87  A    between atoms: _218  and  _219
REMARK   88  A    between atoms: _221  and  _223
REMARK   89  A    between atoms: _223  and  _224
REMARK   90  A    between atoms: _223  and  _226
REMARK   91  A    between atoms: _229  and  _231
REMARK   92  A    between atoms: _231  and  _232
REMARK   93  A    between atoms: _231  and  _234
REMARK   94  A    between atoms: _234  and  _235
REMARK   95  A    between atoms: _235  and  _236
REMARK   96  A    between atoms: _236  and  _237
REMARK   97  A    between atoms: _237  and  _238
REMARK   98  A    between atoms: _242  and  _244
REMARK   99  A    between atoms: _244  and  _245
REMARK  100  A    between atoms: _244  and  _247
REMARK  101  A    between atoms: _247  and  _248
REMARK  102  A    between atoms: _248  and  _249
REMARK  103  A    between atoms: _249  and  _250
REMARK  104  A    between atoms: _250  and  _251
REMARK  105  A    between atoms: _255  and  _257
REMARK  106  A    between atoms: _257  and  _258
REMARK  107  A    between atoms: _257  and  _260
REMARK  108  A    between atoms: _260  and  _261
REMARK  109  A    between atoms: _264  and  _266
REMARK  110  A    between atoms: _266  and  _267
REMARK  111  A    between atoms: _266  and  _269
REMARK  112  A    between atoms: _269  and  _270
REMARK  113  A    between atoms: _273  and  _275
REMARK  114  A    between atoms: _275  and  _276
REMARK  115  A    between atoms: _275  and  _278
REMARK  116  A    between atoms: _278  and  _279
REMARK  117  A    between atoms: _279  and  _280
REMARK  118  A    between atoms: _282  and  _284
REMARK  119  A    between atoms: _284  and  _285
REMARK  120  A    between atoms: _287  and  _289
REMARK  121  A    between atoms: _289  and  _290
REMARK  122  A    between atoms: _289  and  _292
REMARK  123  A    between atoms: _292  and  _293
REMARK  124  A    between atoms: _298  and  _300
REMARK  125  A    between atoms: _300  and  _301
REMARK  126  A    between atoms: _300  and  _303
REMARK  127  A    between atoms: _303  and  _304
REMARK  128  A    between atoms: _307  and  _309
REMARK  129  A    between atoms: _309  and  _310
REMARK  130  A    between atoms: _309  and  _312
REMARK  131  A    between atoms: _312  and  _313
REMARK  132  A    between atoms: _316  and  _318
REMARK  133  A    between atoms: _318  and  _319
REMARK  134  A    between atoms: _318  and  _321
REMARK  135  A    between atoms: _321  and  _322
REMARK  136  A    between atoms: _322  and  _323
REMARK  137  A    between atoms: _325  and  _327
REMARK  138  A    between atoms: _327  and  _328
REMARK  139  A    between atoms: _327  and  _330
REMARK  140  A    between atoms: _330  and  _331
REMARK  141  A    between atoms: _331  and  _332
REMARK  142  A    between atoms: _332  and  _333
REMARK  143  A    between atoms: _333  and  _334
REMARK  144  A    between atoms: _338  and  _340
REMARK  145  A    between atoms: _340  and  _341
REMARK  146  A    between atoms: _340  and  _343
REMARK  147  A    between atoms: _343  and  _344
REMARK  148  A    between atoms: _349  and  _351
REMARK  149  A    between atoms: _351  and  _352
REMARK  150  A    between atoms: _351  and  _354
REMARK  151  A    between atoms: _354  and  _355
REMARK  152  A    between atoms: _360  and  _361
REMARK  153  A    between atoms: _363  and  _365
REMARK  154  A    between atoms: _365  and  _366
REMARK  155  A    between atoms: _365  and  _368
REMARK  156  A    between atoms: _368  and  _369
REMARK  157  A    between atoms: _369  and  _370
REMARK  158  A    between atoms: _373  and  _375
REMARK  159  A    between atoms: _375  and  _376
REMARK  160  A    between atoms: _379  and  _381
REMARK  161  A    between atoms: _381  and  _382
REMARK  162  A    between atoms: _381  and  _384
REMARK  163  A    between atoms: _384  and  _385
REMARK  164  A    between atoms: _388  and  _390
REMARK  165  A    between atoms: _390  and  _391
REMARK  166  A    between atoms: _393  and  _395
REMARK  167  A    between atoms: _395  and  _396
REMARK  168  A    between atoms: _395  and  _398
REMARK  169  A    between atoms: _398  and  _399
REMARK  170  A    between atoms: _399  and  _400
REMARK  171  A    between atoms: _400  and  _401
REMARK  172  A    between atoms: _411  and  _412
REMARK  173  A    between atoms: _417  and  _419
REMARK  174  A    between atoms: _419  and  _420
REMARK  175  A    between atoms: _419  and  _422
REMARK  176  A    between atoms: _422  and  _423
REMARK  177  A    between atoms: _427  and  _428
REMARK  178  A    between atoms: _433  and  _435
REMARK  179  A    between atoms: _435  and  _436
REMARK  180  A    between atoms: _438  and  _440
REMARK  181  A    between atoms: _440  and  _441
REMARK  182  A    between atoms: _440  and  _443
REMARK  183  A    between atoms: _443  and  _444
REMARK  184  A    between atoms: _444  and  _445
REMARK  185  A    between atoms: _445  and  _446
REMARK  186  A    between atoms: _455  and  _457
REMARK  187  A    between atoms: _457  and  _458
REMARK  188  A    between atoms: _457  and  _460
REMARK  189  A    between atoms: _460  and  _461
REMARK  190  A    between atoms: _466  and  _468
REMARK  191  A    between atoms: _468  and  _469
REMARK  192  A    between atoms: _468  and  _471
REMARK  193  A    between atoms: _471  and  _472
REMARK  194  A    between atoms: _478  and  _480
REMARK  195  A    between atoms: _480  and  _481
REMARK  196  A    between atoms: _480  and  _483
REMARK  197  A    between atoms: _483  and  _484
REMARK  198  A    between atoms: _487  and  _489
REMARK  199  A    between atoms: _489  and  _490
REMARK  200  A    between atoms: _489  and  _492
REMARK  201  A    between atoms: _492  and  _493
REMARK  202  A    between atoms: _499  and  _501
REMARK  203  A    between atoms: _501  and  _502
REMARK  204  A    between atoms: _504  and  _506
REMARK  205  A    between atoms: _506  and  _507
REMARK  206  A    between atoms: _509  and  _511
REMARK  207  A    between atoms: _511  and  _512
REMARK  208  A    between atoms: _511  and  _514
REMARK  209  A    between atoms: _514  and  _515
REMARK  210  A    between atoms: _520  and  _521
REMARK  211  A    between atoms: _523  and  _525
REMARK  212  A    between atoms: _525  and  _526
REMARK  213  A    between atoms: _525  and  _528
REMARK  214  A    between atoms: _528  and  _529
REMARK  215  A    between atoms: _534  and  _535
REMARK  216  A    between atoms: _537  and  _539
REMARK  217  A    between atoms: _539  and  _540
REMARK  218  A    between atoms: _539  and  _542
REMARK  219  A    between atoms: _542  and  _543
REMARK  220  A    between atoms: _546  and  _548
REMARK  221  A    between atoms: _548  and  _549
REMARK  222  A    between atoms: _548  and  _551
REMARK  223  A    between atoms: _551  and  _552
REMARK  224  A    between atoms: _555  and  _557
REMARK  225  A    between atoms: _557  and  _558
REMARK  226  A    between atoms: _557  and  _560
REMARK  227  A    between atoms: _560  and  _561
REMARK  228  A    between atoms: _561  and  _562
REMARK  229  A    between atoms: _562  and  _563
REMARK  230  A    between atoms: _563  and  _564
REMARK  231  A    between atoms: _568  and  _570
REMARK  232  A    between atoms: _570  and  _571
REMARK  233  A    between atoms: _570  and  _573
REMARK  234  A    between atoms: _573  and  _574
REMARK  235  A    between atoms: _577  and  _579
REMARK  236  A    between atoms: _579  and  _580
REMARK  237  A    between atoms: _579  and  _582
REMARK  238  A    between atoms: _582  and  _583
REMARK  239  A    between atoms: _586  and  _588
REMARK  240  A    between atoms: _588  and  _589
REMARK  241  A    between atoms: _588  and  _591
REMARK  242  A    between atoms: _591  and  _592
REMARK  243  A    between atoms: _597  and  _598
REMARK  244  A    between atoms: _600  and  _602
REMARK  245  A    between atoms: _602  and  _603
REMARK  246  A    between atoms: _602  and  _605
REMARK  247  A    between atoms: _605  and  _606
REMARK                            x       y       z     vdW  Elec       q    Type
REMARK                         _______ _______ _______ _____ _____    ______ ____
ROOT
ATOM      1  O   HOH     1      17.326 -31.358   3.679  0.00  0.00    +0.000 OA
ENDROOT
TORSDOF 0
REMARK  Name = ../refined-set-2016/4elg/4elg_pocket.pdb
REMARK  247 active torsions:
REMARK  status: ('A' for Active; 'I' for Inactive)
REMARK    1  A    between atoms: _1  and  _3
REMARK    2  A    between atoms: _3  and  _4
REMARK    3  A    between atoms: _3  and  _6
REMARK    4  A    between atoms: _6  and  _7
REMARK    5  A    between atoms: _13  and  _15
REMARK    6  A    between atoms: _15  and  _16
REMARK    7  A    between atoms: _15  and  _18
REMARK    8  A    between atoms: _18  and  _19
REMARK    9  A    between atoms: _19  and  _20
REMARK   10  A    between atoms: _22  and  _24
REMARK   11  A    between atoms: _24  and  _25
REMARK   12  A    between atoms: _24  and  _27
REMARK   13  A    between atoms: _30  and  _32
REMARK   14  A    between atoms: _32  and  _33
REMARK   15  A    between atoms: _36  and  _38
REMARK   16  A    between atoms: _38  and  _39
REMARK   17  A    between atoms: _38  and  _41
REMARK   18  A    between atoms: _41  and  _42
REMARK   19  A    between atoms: _42  and  _43
REMARK   20  A    between atoms: _45  and  _47
REMARK   21  A    between atoms: _47  and  _48
REMARK   22  A    between atoms: _47  and  _50
REMARK   23  A    between atoms: _50  and  _51
REMARK   24  A    between atoms: _54  and  _56
REMARK   25  A    between atoms: _56  and  _57
REMARK   26  A    between atoms: _59  and  _61
REMARK   27  A    between atoms: _61  and  _62
REMARK   28  A    between atoms: _61  and  _64
REMARK   29  A    between atoms: _64  and  _65
REMARK   30  A    between atoms: _65  and  _66
REMARK   31  A    between atoms: _66  and  _67
REMARK   32  A    between atoms: _67  and  _68
REMARK   33  A    between atoms: _72  and  _74
REMARK   34  A    between atoms: _74  and  _75
REMARK   35  A    between atoms: _74  and  _77
REMARK   36  A    between atoms: _77  and  _78
REMARK   37  A    between atoms: _81  and  _83
REMARK   38  A    between atoms: _83  and  _84
REMARK   39  A    between atoms: _83  and  _86
REMARK   40  A    between atoms: _86  and  _87
REMARK   41  A    between atoms: _92  and  _94
REMARK   42  A    between atoms: _94  and  _95
REMARK   43  A    between atoms: _94  and  _97
REMARK   44  A    between atoms: _97  and  _98
REMARK   45  A    between atoms: _103  and  _105
REMARK   46  A    between atoms: _105  and  _106
REMARK   47  A    between atoms: _105  and  _108
REMARK   48  A    between atoms: _108  and  _109
REMARK   49  A    between atoms: _113  and  _114
REMARK   50  A    between atoms: _119  and  _121
REMARK   51  A    between atoms: _121  and  _122
REMARK   52  A    between atoms: _121  and  _124
REMARK   53  A    between atoms: _124  and  _125
REMARK   54  A    between atoms: _135  and  _137
REMARK   55  A    between atoms: _137  and  _138
REMARK   56  A    between atoms: _137  and  _140
REMARK   57  A    between atoms: _140  and  _141
REMARK   58  A    between atoms: _141  and  _142
REMARK   59  A    between atoms: _142  and  _143
REMARK   60  A    between atoms: _152  and  _154
REMARK   61  A    between atoms: _154  and  _155
REMARK   62  A    between atoms: _154  and  _157
REMARK   63  A    between atoms: _157  and  _158
REMARK   64  A    between atoms: _162  and  _163
REMARK   65  A    between atoms: _168  and  _170
REMARK   66  A    between atoms: _170  and  _171
REMARK   67  A    between atoms: _170  and  _173
REMARK   68  A    between atoms: _173  and  _174
REMARK   69  A    between atoms: _176  and  _178
REMARK   70  A    between atoms: _178  and  _179
REMARK   71  A    between atoms: _178  and  _181
REMARK   72  A    between atoms: _181  and  _182
REMARK   73  A    between atoms: _182  and  _183
REMARK   74  A    between atoms: _186  and  _188
REMARK   75  A    between atoms: _188  and  _189
REMARK   76  A    between atoms: _188  and  _191
REMARK   77  A    between atoms: _191  and  _192
REMARK   78  A    between atoms: _195  and  _197
REMARK   79  A    between atoms: _197  and  _198
REMARK   80  A    between atoms: _197  and  _200
REMARK   81  A    between atoms: _200  and  _201
REMARK   82  A    between atoms: _201  and  _202
REMARK   83  A    between atoms: _207  and  _209
REMARK   84  A    between atoms: _209  and  _210
REMARK   85  A    between atoms: _209  and  _212
REMARK   86  A    between atoms: _212  and  _213
REMARK   87  A    between atoms: _218  and  _219
REMARK   88  A    between atoms: _221  and  _223
REMARK   89  A    between atoms: _223  and  _224
REMARK   90  A    between atoms: _223  and  _226
REMARK   91  A    between atoms: _229  and  _231
REMARK   92  A    between atoms: _231  and  _232
REMARK   93  A    between atoms: _231  and  _234
REMARK   94  A    between atoms: _234  and  _235
REMARK   95  A    between atoms: _235  and  _236
REMARK   96  A    between atoms: _236  and  _237
REMARK   97  A    between atoms: _237  and  _238
REMARK   98  A    between atoms: _242  and  _244
REMARK   99  A    between atoms: _244  and  _245
REMARK  100  A    between atoms: _244  and  _247
REMARK  101  A    between atoms: _247  and  _248
REMARK  102  A    between atoms: _248  and  _249
REMARK  103  A    between atoms: _249  and  _250
REMARK  104  A    between atoms: _250  and  _251
REMARK  105  A    between atoms: _255  and  _257
REMARK  106  A    between atoms: _257  and  _258
REMARK  107  A    between atoms: _257  and  _260
REMARK  108  A    between atoms: _260  and  _261
REMARK  109  A    between atoms: _264  and  _266
REMARK  110  A    between atoms: _266  and  _267
REMARK  111  A    between atoms: _266  and  _269
REMARK  112  A    between atoms: _269  and  _270
REMARK  113  A    between atoms: _273  and  _275
REMARK  114  A    between atoms: _275  and  _276
REMARK  115  A    between atoms: _275  and  _278
REMARK  116  A    between atoms: _278  and  _279
REMARK  117  A    between atoms: _279  and  _280
REMARK  118  A    between atoms: _282  and  _284
REMARK  119  A    between atoms: _284  and  _285
REMARK  120  A    between atoms: _287  and  _289
REMARK  121  A    between atoms: _289  and  _290
REMARK  122  A    between atoms: _289  and  _292
REMARK  123  A    between atoms: _292  and  _293
REMARK  124  A    between atoms: _298  and  _300
REMARK  125  A    between atoms: _300  and  _301
REMARK  126  A    between atoms: _300  and  _303
REMARK  127  A    between atoms: _303  and  _304
REMARK  128  A    between atoms: _307  and  _309
REMARK  129  A    between atoms: _309  and  _310
REMARK  130  A    between atoms: _309  and  _312
REMARK  131  A    between atoms: _312  and  _313
REMARK  132  A    between atoms: _316  and  _318
REMARK  133  A    between atoms: _318  and  _319
REMARK  134  A    between atoms: _318  and  _321
REMARK  135  A    between atoms: _321  and  _322
REMARK  136  A    between atoms: _322  and  _323
REMARK  137  A    between atoms: _325  and  _327
REMARK  138  A    between atoms: _327  and  _328
REMARK  139  A    between atoms: _327  and  _330
REMARK  140  A    between atoms: _330  and  _331
REMARK  141  A    between atoms: _331  and  _332
REMARK  142  A    between atoms: _332  and  _333
REMARK  143  A    between atoms: _333  and  _334
REMARK  144  A    between atoms: _338  and  _340
REMARK  145  A    between atoms: _340  and  _341
REMARK  146  A    between atoms: _340  and  _343
REMARK  147  A    between atoms: _343  and  _344
REMARK  148  A    between atoms: _349  and  _351
REMARK  149  A    between atoms: _351  and  _352
REMARK  150  A    between atoms: _351  and  _354
REMARK  151  A    between atoms: _354  and  _355
REMARK  152  A    between atoms: _360  and  _361
REMARK  153  A    between atoms: _363  and  _365
REMARK  154  A    between atoms: _365  and  _366
REMARK  155  A    between atoms: _365  and  _368
REMARK  156  A    between atoms: _368  and  _369
REMARK  157  A    between atoms: _369  and  _370
REMARK  158  A    between atoms: _373  and  _375
REMARK  159  A    between atoms: _375  and  _376
REMARK  160  A    between atoms: _379  and  _381
REMARK  161  A    between atoms: _381  and  _382
REMARK  162  A    between atoms: _381  and  _384
REMARK  163  A    between atoms: _384  and  _385
REMARK  164  A    between atoms: _388  and  _390
REMARK  165  A    between atoms: _390  and  _391
REMARK  166  A    between atoms: _393  and  _395
REMARK  167  A    between atoms: _395  and  _396
REMARK  168  A    between atoms: _395  and  _398
REMARK  169  A    between atoms: _398  and  _399
REMARK  170  A    between atoms: _399  and  _400
REMARK  171  A    between atoms: _400  and  _401
REMARK  172  A    between atoms: _411  and  _412
REMARK  173  A    between atoms: _417  and  _419
REMARK  174  A    between atoms: _419  and  _420
REMARK  175  A    between atoms: _419  and  _422
REMARK  176  A    between atoms: _422  and  _423
REMARK  177  A    between atoms: _427  and  _428
REMARK  178  A    between atoms: _433  and  _435
REMARK  179  A    between atoms: _435  and  _436
REMARK  180  A    between atoms: _438  and  _440
REMARK  181  A    between atoms: _440  and  _441
REMARK  182  A    between atoms: _440  and  _443
REMARK  183  A    between atoms: _443  and  _444
REMARK  184  A    between atoms: _444  and  _445
REMARK  185  A    between atoms: _445  and  _446
REMARK  186  A    between atoms: _455  and  _457
REMARK  187  A    between atoms: _457  and  _458
REMARK  188  A    between atoms: _457  and  _460
REMARK  189  A    between atoms: _460  and  _461
REMARK  190  A    between atoms: _466  and  _468
REMARK  191  A    between atoms: _468  and  _469
REMARK  192  A    between atoms: _468  and  _471
REMARK  193  A    between atoms: _471  and  _472
REMARK  194  A    between atoms: _478  and  _480
REMARK  195  A    between atoms: _480  and  _481
REMARK  196  A    between atoms: _480  and  _483
REMARK  197  A    between atoms: _483  and  _484
REMARK  198  A    between atoms: _487  and  _489
REMARK  199  A    between atoms: _489  and  _490
REMARK  200  A    between atoms: _489  and  _492
REMARK  201  A    between atoms: _492  and  _493
REMARK  202  A    between atoms: _499  and  _501
REMARK  203  A    between atoms: _501  and  _502
REMARK  204  A    between atoms: _504  and  _506
REMARK  205  A    between atoms: _506  and  _507
REMARK  206  A    between atoms: _509  and  _511
REMARK  207  A    between atoms: _511  and  _512
REMARK  208  A    between atoms: _511  and  _514
REMARK  209  A    between atoms: _514  and  _515
REMARK  210  A    between atoms: _520  and  _521
REMARK  211  A    between atoms: _523  and  _525
REMARK  212  A    between atoms: _525  and  _526
REMARK  213  A    between atoms: _525  and  _528
REMARK  214  A    between atoms: _528  and  _529
REMARK  215  A    between atoms: _534  and  _535
REMARK  216  A    between atoms: _537  and  _539
REMARK  217  A    between atoms: _539  and  _540
REMARK  218  A    between atoms: _539  and  _542
REMARK  219  A    between atoms: _542  and  _543
REMARK  220  A    between atoms: _546  and  _548
REMARK  221  A    between atoms: _548  and  _549
REMARK  222  A    between atoms: _548  and  _551
REMARK  223  A    between atoms: _551  and  _552
REMARK  224  A    between atoms: _555  and  _557
REMARK  225  A    between atoms: _557  and  _558
REMARK  226  A    between atoms: _557  and  _560
REMARK  227  A    between atoms: _560  and  _561
REMARK  228  A    between atoms: _561  and  _562
REMARK  229  A    between atoms: _562  and  _563
REMARK  230  A    between atoms: _563  and  _564
REMARK  231  A    between atoms: _568  and  _570
REMARK  232  A    between atoms: _570  and  _571
REMARK  233  A    between atoms: _570  and  _573
REMARK  234  A    between atoms: _573  and  _574
REMARK  235  A    between atoms: _577  and  _579
REMARK  236  A    between atoms: _579  and  _580
REMARK  237  A    between atoms: _579  and  _582
REMARK  238  A    between atoms: _582  and  _583
REMARK  239  A    between atoms: _586  and  _588
REMARK  240  A    between atoms: _588  and  _589
REMARK  241  A    between atoms: _588  and  _591
REMARK  242  A    between atoms: _591  and  _592
REMARK  243  A    between atoms: _597  and  _598
REMARK  244  A    between atoms: _600  and  _602
REMARK  245  A    between atoms: _602  and  _603
REMARK  246  A    between atoms: _602  and  _605
REMARK  247  A    between atoms: _605  and  _606
REMARK                            x       y       z     vdW  Elec       q    Type
REMARK                         _______ _______ _______ _____ _____    ______ ____
ROOT
ATOM      1  O   HOH     1      28.351 -35.381   0.840  0.00  0.00    +0.000 OA
ENDROOT
TORSDOF 0
REMARK  Name = ../refined-set-2016/4elg/4elg_pocket.pdb
REMARK  247 active torsions:
REMARK  status: ('A' for Active; 'I' for Inactive)
REMARK    1  A    between atoms: _1  and  _3
REMARK    2  A    between atoms: _3  and  _4
REMARK    3  A    between atoms: _3  and  _6
REMARK    4  A    between atoms: _6  and  _7
REMARK    5  A    between atoms: _13  and  _15
REMARK    6  A    between atoms: _15  and  _16
REMARK    7  A    between atoms: _15  and  _18
REMARK    8  A    between atoms: _18  and  _19
REMARK    9  A    between atoms: _19  and  _20
REMARK   10  A    between atoms: _22  and  _24
REMARK   11  A    between atoms: _24  and  _25
REMARK   12  A    between atoms: _24  and  _27
REMARK   13  A    between atoms: _30  and  _32
REMARK   14  A    between atoms: _32  and  _33
REMARK   15  A    between atoms: _36  and  _38
REMARK   16  A    between atoms: _38  and  _39
REMARK   17  A    between atoms: _38  and  _41
REMARK   18  A    between atoms: _41  and  _42
REMARK   19  A    between atoms: _42  and  _43
REMARK   20  A    between atoms: _45  and  _47
REMARK   21  A    between atoms: _47  and  _48
REMARK   22  A    between atoms: _47  and  _50
REMARK   23  A    between atoms: _50  and  _51
REMARK   24  A    between atoms: _54  and  _56
REMARK   25  A    between atoms: _56  and  _57
REMARK   26  A    between atoms: _59  and  _61
REMARK   27  A    between atoms: _61  and  _62
REMARK   28  A    between atoms: _61  and  _64
REMARK   29  A    between atoms: _64  and  _65
REMARK   30  A    between atoms: _65  and  _66
REMARK   31  A    between atoms: _66  and  _67
REMARK   32  A    between atoms: _67  and  _68
REMARK   33  A    between atoms: _72  and  _74
REMARK   34  A    between atoms: _74  and  _75
REMARK   35  A    between atoms: _74  and  _77
REMARK   36  A    between atoms: _77  and  _78
REMARK   37  A    between atoms: _81  and  _83
REMARK   38  A    between atoms: _83  and  _84
REMARK   39  A    between atoms: _83  and  _86
REMARK   40  A    between atoms: _86  and  _87
REMARK   41  A    between atoms: _92  and  _94
REMARK   42  A    between atoms: _94  and  _95
REMARK   43  A    between atoms: _94  and  _97
REMARK   44  A    between atoms: _97  and  _98
REMARK   45  A    between atoms: _103  and  _105
REMARK   46  A    between atoms: _105  and  _106
REMARK   47  A    between atoms: _105  and  _108
REMARK   48  A    between atoms: _108  and  _109
REMARK   49  A    between atoms: _113  and  _114
REMARK   50  A    between atoms: _119  and  _121
REMARK   51  A    between atoms: _121  and  _122
REMARK   52  A    between atoms: _121  and  _124
REMARK   53  A    between atoms: _124  and  _125
REMARK   54  A    between atoms: _135  and  _137
REMARK   55  A    between atoms: _137  and  _138
REMARK   56  A    between atoms: _137  and  _140
REMARK   57  A    between atoms: _140  and  _141
REMARK   58  A    between atoms: _141  and  _142
REMARK   59  A    between atoms: _142  and  _143
REMARK   60  A    between atoms: _152  and  _154
REMARK   61  A    between atoms: _154  and  _155
REMARK   62  A    between atoms: _154  and  _157
REMARK   63  A    between atoms: _157  and  _158
REMARK   64  A    between atoms: _162  and  _163
REMARK   65  A    between atoms: _168  and  _170
REMARK   66  A    between atoms: _170  and  _171
REMARK   67  A    between atoms: _170  and  _173
REMARK   68  A    between atoms: _173  and  _174
REMARK   69  A    between atoms: _176  and  _178
REMARK   70  A    between atoms: _178  and  _179
REMARK   71  A    between atoms: _178  and  _181
REMARK   72  A    between atoms: _181  and  _182
REMARK   73  A    between atoms: _182  and  _183
REMARK   74  A    between atoms: _186  and  _188
REMARK   75  A    between atoms: _188  and  _189
REMARK   76  A    between atoms: _188  and  _191
REMARK   77  A    between atoms: _191  and  _192
REMARK   78  A    between atoms: _195  and  _197
REMARK   79  A    between atoms: _197  and  _198
REMARK   80  A    between atoms: _197  and  _200
REMARK   81  A    between atoms: _200  and  _201
REMARK   82  A    between atoms: _201  and  _202
REMARK   83  A    between atoms: _207  and  _209
REMARK   84  A    between atoms: _209  and  _210
REMARK   85  A    between atoms: _209  and  _212
REMARK   86  A    between atoms: _212  and  _213
REMARK   87  A    between atoms: _218  and  _219
REMARK   88  A    between atoms: _221  and  _223
REMARK   89  A    between atoms: _223  and  _224
REMARK   90  A    between atoms: _223  and  _226
REMARK   91  A    between atoms: _229  and  _231
REMARK   92  A    between atoms: _231  and  _232
REMARK   93  A    between atoms: _231  and  _234
REMARK   94  A    between atoms: _234  and  _235
REMARK   95  A    between atoms: _235  and  _236
REMARK   96  A    between atoms: _236  and  _237
REMARK   97  A    between atoms: _237  and  _238
REMARK   98  A    between atoms: _242  and  _244
REMARK   99  A    between atoms: _244  and  _245
REMARK  100  A    between atoms: _244  and  _247
REMARK  101  A    between atoms: _247  and  _248
REMARK  102  A    between atoms: _248  and  _249
REMARK  103  A    between atoms: _249  and  _250
REMARK  104  A    between atoms: _250  and  _251
REMARK  105  A    between atoms: _255  and  _257
REMARK  106  A    between atoms: _257  and  _258
REMARK  107  A    between atoms: _257  and  _260
REMARK  108  A    between atoms: _260  and  _261
REMARK  109  A    between atoms: _264  and  _266
REMARK  110  A    between atoms: _266  and  _267
REMARK  111  A    between atoms: _266  and  _269
REMARK  112  A    between atoms: _269  and  _270
REMARK  113  A    between atoms: _273  and  _275
REMARK  114  A    between atoms: _275  and  _276
REMARK  115  A    between atoms: _275  and  _278
REMARK  116  A    between atoms: _278  and  _279
REMARK  117  A    between atoms: _279  and  _280
REMARK  118  A    between atoms: _282  and  _284
REMARK  119  A    between atoms: _284  and  _285
REMARK  120  A    between atoms: _287  and  _289
REMARK  121  A    between atoms: _289  and  _290
REMARK  122  A    between atoms: _289  and  _292
REMARK  123  A    between atoms: _292  and  _293
REMARK  124  A    between atoms: _298  and  _300
REMARK  125  A    between atoms: _300  and  _301
REMARK  126  A    between atoms: _300  and  _303
REMARK  127  A    between atoms: _303  and  _304
REMARK  128  A    between atoms: _307  and  _309
REMARK  129  A    between atoms: _309  and  _310
REMARK  130  A    between atoms: _309  and  _312
REMARK  131  A    between atoms: _312  and  _313
REMARK  132  A    between atoms: _316  and  _318
REMARK  133  A    between atoms: _318  and  _319
REMARK  134  A    between atoms: _318  and  _321
REMARK  135  A    between atoms: _321  and  _322
REMARK  136  A    between atoms: _322  and  _323
REMARK  137  A    between atoms: _325  and  _327
REMARK  138  A    between atoms: _327  and  _328
REMARK  139  A    between atoms: _327  and  _330
REMARK  140  A    between atoms: _330  and  _331
REMARK  141  A    between atoms: _331  and  _332
REMARK  142  A    between atoms: _332  and  _333
REMARK  143  A    between atoms: _333  and  _334
REMARK  144  A    between atoms: _338  and  _340
REMARK  145  A    between atoms: _340  and  _341
REMARK  146  A    between atoms: _340  and  _343
REMARK  147  A    between atoms: _343  and  _344
REMARK  148  A    between atoms: _349  and  _351
REMARK  149  A    between atoms: _351  and  _352
REMARK  150  A    between atoms: _351  and  _354
REMARK  151  A    between atoms: _354  and  _355
REMARK  152  A    between atoms: _360  and  _361
REMARK  153  A    between atoms: _363  and  _365
REMARK  154  A    between atoms: _365  and  _366
REMARK  155  A    between atoms: _365  and  _368
REMARK  156  A    between atoms: _368  and  _369
REMARK  157  A    between atoms: _369  and  _370
REMARK  158  A    between atoms: _373  and  _375
REMARK  159  A    between atoms: _375  and  _376
REMARK  160  A    between atoms: _379  and  _381
REMARK  161  A    between atoms: _381  and  _382
REMARK  162  A    between atoms: _381  and  _384
REMARK  163  A    between atoms: _384  and  _385
REMARK  164  A    between atoms: _388  and  _390
REMARK  165  A    between atoms: _390  and  _391
REMARK  166  A    between atoms: _393  and  _395
REMARK  167  A    between atoms: _395  and  _396
REMARK  168  A    between atoms: _395  and  _398
REMARK  169  A    between atoms: _398  and  _399
REMARK  170  A    between atoms: _399  and  _400
REMARK  171  A    between atoms: _400  and  _401
REMARK  172  A    between atoms: _411  and  _412
REMARK  173  A    between atoms: _417  and  _419
REMARK  174  A    between atoms: _419  and  _420
REMARK  175  A    between atoms: _419  and  _422
REMARK  176  A    between atoms: _422  and  _423
REMARK  177  A    between atoms: _427  and  _428
REMARK  178  A    between atoms: _433  and  _435
REMARK  179  A    between atoms: _435  and  _436
REMARK  180  A    between atoms: _438  and  _440
REMARK  181  A    between atoms: _440  and  _441
REMARK  182  A    between atoms: _440  and  _443
REMARK  183  A    between atoms: _443  and  _444
REMARK  184  A    between atoms: _444  and  _445
REMARK  185  A    between atoms: _445  and  _446
REMARK  186  A    between atoms: _455  and  _457
REMARK  187  A    between atoms: _457  and  _458
REMARK  188  A    between atoms: _457  and  _460
REMARK  189  A    between atoms: _460  and  _461
REMARK  190  A    between atoms: _466  and  _468
REMARK  191  A    between atoms: _468  and  _469
REMARK  192  A    between atoms: _468  and  _471
REMARK  193  A    between atoms: _471  and  _472
REMARK  194  A    between atoms: _478  and  _480
REMARK  195  A    between atoms: _480  and  _481
REMARK  196  A    between atoms: _480  and  _483
REMARK  197  A    between atoms: _483  and  _484
REMARK  198  A    between atoms: _487  and  _489
REMARK  199  A    between atoms: _489  and  _490
REMARK  200  A    between atoms: _489  and  _492
REMARK  201  A    between atoms: _492  and  _493
REMARK  202  A    between atoms: _499  and  _501
REMARK  203  A    between atoms: _501  and  _502
REMARK  204  A    between atoms: _504  and  _506
REMARK  205  A    between atoms: _506  and  _507
REMARK  206  A    between atoms: _509  and  _511
REMARK  207  A    between atoms: _511  and  _512
REMARK  208  A    between atoms: _511  and  _514
REMARK  209  A    between atoms: _514  and  _515
REMARK  210  A    between atoms: _520  and  _521
REMARK  211  A    between atoms: _523  and  _525
REMARK  212  A    between atoms: _525  and  _526
REMARK  213  A    between atoms: _525  and  _528
REMARK  214  A    between atoms: _528  and  _529
REMARK  215  A    between atoms: _534  and  _535
REMARK  216  A    between atoms: _537  and  _539
REMARK  217  A    between atoms: _539  and  _540
REMARK  218  A    between atoms: _539  and  _542
REMARK  219  A    between atoms: _542  and  _543
REMARK  220  A    between atoms: _546  and  _548
REMARK  221  A    between atoms: _548  and  _549
REMARK  222  A    between atoms: _548  and  _551
REMARK  223  A    between atoms: _551  and  _552
REMARK  224  A    between atoms: _555  and  _557
REMARK  225  A    between atoms: _557  and  _558
REMARK  226  A    between atoms: _557  and  _560
REMARK  227  A    between atoms: _560  and  _561
REMARK  228  A    between atoms: _561  and  _562
REMARK  229  A    between atoms: _562  and  _563
REMARK  230  A    between atoms: _563  and  _564
REMARK  231  A    between atoms: _568  and  _570
REMARK  232  A    between atoms: _570  and  _571
REMARK  233  A    between atoms: _570  and  _573
REMARK  234  A    between atoms: _573  and  _574
REMARK  235  A    between atoms: _577  and  _579
REMARK  236  A    between atoms: _579  and  _580
REMARK  237  A    between atoms: _579  and  _582
REMARK  238  A    between atoms: _582  and  _583
REMARK  239  A    between atoms: _586  and  _588
REMARK  240  A    between atoms: _588  and  _589
REMARK  241  A    between atoms: _588  and  _591
REMARK  242  A    between atoms: _591  and  _592
REMARK  243  A    between atoms: _597  and  _598
REMARK  244  A    between atoms: _600  and  _602
REMARK  245  A    between atoms: _602  and  _603
REMARK  246  A    between atoms: _602  and  _605
REMARK  247  A    between atoms: _605  and  _606
REMARK                            x       y       z     vdW  Elec       q    Type
REMARK                         _______ _______ _______ _____ _____    ______ ____
ROOT
ATOM      1  O   HOH     1      18.649 -28.817   4.149  0.00  0.00    +0.000 OA
ENDROOT
TORSDOF 0
REMARK  Name = ../refined-set-2016/4elg/4elg_pocket.pdb
REMARK  247 active torsions:
REMARK  status: ('A' for Active; 'I' for Inactive)
REMARK    1  A    between atoms: _1  and  _3
REMARK    2  A    between atoms: _3  and  _4
REMARK    3  A    between atoms: _3  and  _6
REMARK    4  A    between atoms: _6  and  _7
REMARK    5  A    between atoms: _13  and  _15
REMARK    6  A    between atoms: _15  and  _16
REMARK    7  A    between atoms: _15  and  _18
REMARK    8  A    between atoms: _18  and  _19
REMARK    9  A    between atoms: _19  and  _20
REMARK   10  A    between atoms: _22  and  _24
REMARK   11  A    between atoms: _24  and  _25
REMARK   12  A    between atoms: _24  and  _27
REMARK   13  A    between atoms: _30  and  _32
REMARK   14  A    between atoms: _32  and  _33
REMARK   15  A    between atoms: _36  and  _38
REMARK   16  A    between atoms: _38  and  _39
REMARK   17  A    between atoms: _38  and  _41
REMARK   18  A    between atoms: _41  and  _42
REMARK   19  A    between atoms: _42  and  _43
REMARK   20  A    between atoms: _45  and  _47
REMARK   21  A    between atoms: _47  and  _48
REMARK   22  A    between atoms: _47  and  _50
REMARK   23  A    between atoms: _50  and  _51
REMARK   24  A    between atoms: _54  and  _56
REMARK   25  A    between atoms: _56  and  _57
REMARK   26  A    between atoms: _59  and  _61
REMARK   27  A    between atoms: _61  and  _62
REMARK   28  A    between atoms: _61  and  _64
REMARK   29  A    between atoms: _64  and  _65
REMARK   30  A    between atoms: _65  and  _66
REMARK   31  A    between atoms: _66  and  _67
REMARK   32  A    between atoms: _67  and  _68
REMARK   33  A    between atoms: _72  and  _74
REMARK   34  A    between atoms: _74  and  _75
REMARK   35  A    between atoms: _74  and  _77
REMARK   36  A    between atoms: _77  and  _78
REMARK   37  A    between atoms: _81  and  _83
REMARK   38  A    between atoms: _83  and  _84
REMARK   39  A    between atoms: _83  and  _86
REMARK   40  A    between atoms: _86  and  _87
REMARK   41  A    between atoms: _92  and  _94
REMARK   42  A    between atoms: _94  and  _95
REMARK   43  A    between atoms: _94  and  _97
REMARK   44  A    between atoms: _97  and  _98
REMARK   45  A    between atoms: _103  and  _105
REMARK   46  A    between atoms: _105  and  _106
REMARK   47  A    between atoms: _105  and  _108
REMARK   48  A    between atoms: _108  and  _109
REMARK   49  A    between atoms: _113  and  _114
REMARK   50  A    between atoms: _119  and  _121
REMARK   51  A    between atoms: _121  and  _122
REMARK   52  A    between atoms: _121  and  _124
REMARK   53  A    between atoms: _124  and  _125
REMARK   54  A    between atoms: _135  and  _137
REMARK   55  A    between atoms: _137  and  _138
REMARK   56  A    between atoms: _137  and  _140
REMARK   57  A    between atoms: _140  and  _141
REMARK   58  A    between atoms: _141  and  _142
REMARK   59  A    between atoms: _142  and  _143
REMARK   60  A    between atoms: _152  and  _154
REMARK   61  A    between atoms: _154  and  _155
REMARK   62  A    between atoms: _154  and  _157
REMARK   63  A    between atoms: _157  and  _158
REMARK   64  A    between atoms: _162  and  _163
REMARK   65  A    between atoms: _168  and  _170
REMARK   66  A    between atoms: _170  and  _171
REMARK   67  A    between atoms: _170  and  _173
REMARK   68  A    between atoms: _173  and  _174
REMARK   69  A    between atoms: _176  and  _178
REMARK   70  A    between atoms: _178  and  _179
REMARK   71  A    between atoms: _178  and  _181
REMARK   72  A    between atoms: _181  and  _182
REMARK   73  A    between atoms: _182  and  _183
REMARK   74  A    between atoms: _186  and  _188
REMARK   75  A    between atoms: _188  and  _189
REMARK   76  A    between atoms: _188  and  _191
REMARK   77  A    between atoms: _191  and  _192
REMARK   78  A    between atoms: _195  and  _197
REMARK   79  A    between atoms: _197  and  _198
REMARK   80  A    between atoms: _197  and  _200
REMARK   81  A    between atoms: _200  and  _201
REMARK   82  A    between atoms: _201  and  _202
REMARK   83  A    between atoms: _207  and  _209
REMARK   84  A    between atoms: _209  and  _210
REMARK   85  A    between atoms: _209  and  _212
REMARK   86  A    between atoms: _212  and  _213
REMARK   87  A    between atoms: _218  and  _219
REMARK   88  A    between atoms: _221  and  _223
REMARK   89  A    between atoms: _223  and  _224
REMARK   90  A    between atoms: _223  and  _226
REMARK   91  A    between atoms: _229  and  _231
REMARK   92  A    between atoms: _231  and  _232
REMARK   93  A    between atoms: _231  and  _234
REMARK   94  A    between atoms: _234  and  _235
REMARK   95  A    between atoms: _235  and  _236
REMARK   96  A    between atoms: _236  and  _237
REMARK   97  A    between atoms: _237  and  _238
REMARK   98  A    between atoms: _242  and  _244
REMARK   99  A    between atoms: _244  and  _245
REMARK  100  A    between atoms: _244  and  _247
REMARK  101  A    between atoms: _247  and  _248
REMARK  102  A    between atoms: _248  and  _249
REMARK  103  A    between atoms: _249  and  _250
REMARK  104  A    between atoms: _250  and  _251
REMARK  105  A    between atoms: _255  and  _257
REMARK  106  A    between atoms: _257  and  _258
REMARK  107  A    between atoms: _257  and  _260
REMARK  108  A    between atoms: _260  and  _261
REMARK  109  A    between atoms: _264  and  _266
REMARK  110  A    between atoms: _266  and  _267
REMARK  111  A    between atoms: _266  and  _269
REMARK  112  A    between atoms: _269  and  _270
REMARK  113  A    between atoms: _273  and  _275
REMARK  114  A    between atoms: _275  and  _276
REMARK  115  A    between atoms: _275  and  _278
REMARK  116  A    between atoms: _278  and  _279
REMARK  117  A    between atoms: _279  and  _280
REMARK  118  A    between atoms: _282  and  _284
REMARK  119  A    between atoms: _284  and  _285
REMARK  120  A    between atoms: _287  and  _289
REMARK  121  A    between atoms: _289  and  _290
REMARK  122  A    between atoms: _289  and  _292
REMARK  123  A    between atoms: _292  and  _293
REMARK  124  A    between atoms: _298  and  _300
REMARK  125  A    between atoms: _300  and  _301
REMARK  126  A    between atoms: _300  and  _303
REMARK  127  A    between atoms: _303  and  _304
REMARK  128  A    between atoms: _307  and  _309
REMARK  129  A    between atoms: _309  and  _310
REMARK  130  A    between atoms: _309  and  _312
REMARK  131  A    between atoms: _312  and  _313
REMARK  132  A    between atoms: _316  and  _318
REMARK  133  A    between atoms: _318  and  _319
REMARK  134  A    between atoms: _318  and  _321
REMARK  135  A    between atoms: _321  and  _322
REMARK  136  A    between atoms: _322  and  _323
REMARK  137  A    between atoms: _325  and  _327
REMARK  138  A    between atoms: _327  and  _328
REMARK  139  A    between atoms: _327  and  _330
REMARK  140  A    between atoms: _330  and  _331
REMARK  141  A    between atoms: _331  and  _332
REMARK  142  A    between atoms: _332  and  _333
REMARK  143  A    between atoms: _333  and  _334
REMARK  144  A    between atoms: _338  and  _340
REMARK  145  A    between atoms: _340  and  _341
REMARK  146  A    between atoms: _340  and  _343
REMARK  147  A    between atoms: _343  and  _344
REMARK  148  A    between atoms: _349  and  _351
REMARK  149  A    between atoms: _351  and  _352
REMARK  150  A    between atoms: _351  and  _354
REMARK  151  A    between atoms: _354  and  _355
REMARK  152  A    between atoms: _360  and  _361
REMARK  153  A    between atoms: _363  and  _365
REMARK  154  A    between atoms: _365  and  _366
REMARK  155  A    between atoms: _365  and  _368
REMARK  156  A    between atoms: _368  and  _369
REMARK  157  A    between atoms: _369  and  _370
REMARK  158  A    between atoms: _373  and  _375
REMARK  159  A    between atoms: _375  and  _376
REMARK  160  A    between atoms: _379  and  _381
REMARK  161  A    between atoms: _381  and  _382
REMARK  162  A    between atoms: _381  and  _384
REMARK  163  A    between atoms: _384  and  _385
REMARK  164  A    between atoms: _388  and  _390
REMARK  165  A    between atoms: _390  and  _391
REMARK  166  A    between atoms: _393  and  _395
REMARK  167  A    between atoms: _395  and  _396
REMARK  168  A    between atoms: _395  and  _398
REMARK  169  A    between atoms: _398  and  _399
REMARK  170  A    between atoms: _399  and  _400
REMARK  171  A    between atoms: _400  and  _401
REMARK  172  A    between atoms: _411  and  _412
REMARK  173  A    between atoms: _417  and  _419
REMARK  174  A    between atoms: _419  and  _420
REMARK  175  A    between atoms: _419  and  _422
REMARK  176  A    between atoms: _422  and  _423
REMARK  177  A    between atoms: _427  and  _428
REMARK  178  A    between atoms: _433  and  _435
REMARK  179  A    between atoms: _435  and  _436
REMARK  180  A    between atoms: _438  and  _440
REMARK  181  A    between atoms: _440  and  _441
REMARK  182  A    between atoms: _440  and  _443
REMARK  183  A    between atoms: _443  and  _444
REMARK  184  A    between atoms: _444  and  _445
REMARK  185  A    between atoms: _445  and  _446
REMARK  186  A    between atoms: _455  and  _457
REMARK  187  A    between atoms: _457  and  _458
REMARK  188  A    between atoms: _457  and  _460
REMARK  189  A    between atoms: _460  and  _461
REMARK  190  A    between atoms: _466  and  _468
REMARK  191  A    between atoms: _468  and  _469
REMARK  192  A    between atoms: _468  and  _471
REMARK  193  A    between atoms: _471  and  _472
REMARK  194  A    between atoms: _478  and  _480
REMARK  195  A    between atoms: _480  and  _481
REMARK  196  A    between atoms: _480  and  _483
REMARK  197  A    between atoms: _483  and  _484
REMARK  198  A    between atoms: _487  and  _489
REMARK  199  A    between atoms: _489  and  _490
REMARK  200  A    between atoms: _489  and  _492
REMARK  201  A    between atoms: _492  and  _493
REMARK  202  A    between atoms: _499  and  _501
REMARK  203  A    between atoms: _501  and  _502
REMARK  204  A    between atoms: _504  and  _506
REMARK  205  A    between atoms: _506  and  _507
REMARK  206  A    between atoms: _509  and  _511
REMARK  207  A    between atoms: _511  and  _512
REMARK  208  A    between atoms: _511  and  _514
REMARK  209  A    between atoms: _514  and  _515
REMARK  210  A    between atoms: _520  and  _521
REMARK  211  A    between atoms: _523  and  _525
REMARK  212  A    between atoms: _525  and  _526
REMARK  213  A    between atoms: _525  and  _528
REMARK  214  A    between atoms: _528  and  _529
REMARK  215  A    between atoms: _534  and  _535
REMARK  216  A    between atoms: _537  and  _539
REMARK  217  A    between atoms: _539  and  _540
REMARK  218  A    between atoms: _539  and  _542
REMARK  219  A    between atoms: _542  and  _543
REMARK  220  A    between atoms: _546  and  _548
REMARK  221  A    between atoms: _548  and  _549
REMARK  222  A    between atoms: _548  and  _551
REMARK  223  A    between atoms: _551  and  _552
REMARK  224  A    between atoms: _555  and  _557
REMARK  225  A    between atoms: _557  and  _558
REMARK  226  A    between atoms: _557  and  _560
REMARK  227  A    between atoms: _560  and  _561
REMARK  228  A    between atoms: _561  and  _562
REMARK  229  A    between atoms: _562  and  _563
REMARK  230  A    between atoms: _563  and  _564
REMARK  231  A    between atoms: _568  and  _570
REMARK  232  A    between atoms: _570  and  _571
REMARK  233  A    between atoms: _570  and  _573
REMARK  234  A    between atoms: _573  and  _574
REMARK  235  A    between atoms: _577  and  _579
REMARK  236  A    between atoms: _579  and  _580
REMARK  237  A    between atoms: _579  and  _582
REMARK  238  A    between atoms: _582  and  _583
REMARK  239  A    between atoms: _586  and  _588
REMARK  240  A    between atoms: _588  and  _589
REMARK  241  A    between atoms: _588  and  _591
REMARK  242  A    between atoms: _591  and  _592
REMARK  243  A    between atoms: _597  and  _598
REMARK  244  A    between atoms: _600  and  _602
REMARK  245  A    between atoms: _602  and  _603
REMARK  246  A    between atoms: _602  and  _605
REMARK  247  A    between atoms: _605  and  _606
REMARK                            x       y       z     vdW  Elec       q    Type
REMARK                         _______ _______ _______ _____ _____    ______ ____
ROOT
ATOM      1  O   HOH     1      24.874 -31.533   8.950  0.00  0.00    +0.000 OA
ENDROOT
TORSDOF 0
REMARK  Name = ../refined-set-2016/4elg/4elg_pocket.pdb
REMARK  247 active torsions:
REMARK  status: ('A' for Active; 'I' for Inactive)
REMARK    1  A    between atoms: _1  and  _3
REMARK    2  A    between atoms: _3  and  _4
REMARK    3  A    between atoms: _3  and  _6
REMARK    4  A    between atoms: _6  and  _7
REMARK    5  A    between atoms: _13  and  _15
REMARK    6  A    between atoms: _15  and  _16
REMARK    7  A    between atoms: _15  and  _18
REMARK    8  A    between atoms: _18  and  _19
REMARK    9  A    between atoms: _19  and  _20
REMARK   10  A    between atoms: _22  and  _24
REMARK   11  A    between atoms: _24  and  _25
REMARK   12  A    between atoms: _24  and  _27
REMARK   13  A    between atoms: _30  and  _32
REMARK   14  A    between atoms: _32  and  _33
REMARK   15  A    between atoms: _36  and  _38
REMARK   16  A    between atoms: _38  and  _39
REMARK   17  A    between atoms: _38  and  _41
REMARK   18  A    between atoms: _41  and  _42
REMARK   19  A    between atoms: _42  and  _43
REMARK   20  A    between atoms: _45  and  _47
REMARK   21  A    between atoms: _47  and  _48
REMARK   22  A    between atoms: _47  and  _50
REMARK   23  A    between atoms: _50  and  _51
REMARK   24  A    between atoms: _54  and  _56
REMARK   25  A    between atoms: _56  and  _57
REMARK   26  A    between atoms: _59  and  _61
REMARK   27  A    between atoms: _61  and  _62
REMARK   28  A    between atoms: _61  and  _64
REMARK   29  A    between atoms: _64  and  _65
REMARK   30  A    between atoms: _65  and  _66
REMARK   31  A    between atoms: _66  and  _67
REMARK   32  A    between atoms: _67  and  _68
REMARK   33  A    between atoms: _72  and  _74
REMARK   34  A    between atoms: _74  and  _75
REMARK   35  A    between atoms: _74  and  _77
REMARK   36  A    between atoms: _77  and  _78
REMARK   37  A    between atoms: _81  and  _83
REMARK   38  A    between atoms: _83  and  _84
REMARK   39  A    between atoms: _83  and  _86
REMARK   40  A    between atoms: _86  and  _87
REMARK   41  A    between atoms: _92  and  _94
REMARK   42  A    between atoms: _94  and  _95
REMARK   43  A    between atoms: _94  and  _97
REMARK   44  A    between atoms: _97  and  _98
REMARK   45  A    between atoms: _103  and  _105
REMARK   46  A    between atoms: _105  and  _106
REMARK   47  A    between atoms: _105  and  _108
REMARK   48  A    between atoms: _108  and  _109
REMARK   49  A    between atoms: _113  and  _114
REMARK   50  A    between atoms: _119  and  _121
REMARK   51  A    between atoms: _121  and  _122
REMARK   52  A    between atoms: _121  and  _124
REMARK   53  A    between atoms: _124  and  _125
REMARK   54  A    between atoms: _135  and  _137
REMARK   55  A    between atoms: _137  and  _138
REMARK   56  A    between atoms: _137  and  _140
REMARK   57  A    between atoms: _140  and  _141
REMARK   58  A    between atoms: _141  and  _142
REMARK   59  A    between atoms: _142  and  _143
REMARK   60  A    between atoms: _152  and  _154
REMARK   61  A    between atoms: _154  and  _155
REMARK   62  A    between atoms: _154  and  _157
REMARK   63  A    between atoms: _157  and  _158
REMARK   64  A    between atoms: _162  and  _163
REMARK   65  A    between atoms: _168  and  _170
REMARK   66  A    between atoms: _170  and  _171
REMARK   67  A    between atoms: _170  and  _173
REMARK   68  A    between atoms: _173  and  _174
REMARK   69  A    between atoms: _176  and  _178
REMARK   70  A    between atoms: _178  and  _179
REMARK   71  A    between atoms: _178  and  _181
REMARK   72  A    between atoms: _181  and  _182
REMARK   73  A    between atoms: _182  and  _183
REMARK   74  A    between atoms: _186  and  _188
REMARK   75  A    between atoms: _188  and  _189
REMARK   76  A    between atoms: _188  and  _191
REMARK   77  A    between atoms: _191  and  _192
REMARK   78  A    between atoms: _195  and  _197
REMARK   79  A    between atoms: _197  and  _198
REMARK   80  A    between atoms: _197  and  _200
REMARK   81  A    between atoms: _200  and  _201
REMARK   82  A    between atoms: _201  and  _202
REMARK   83  A    between atoms: _207  and  _209
REMARK   84  A    between atoms: _209  and  _210
REMARK   85  A    between atoms: _209  and  _212
REMARK   86  A    between atoms: _212  and  _213
REMARK   87  A    between atoms: _218  and  _219
REMARK   88  A    between atoms: _221  and  _223
REMARK   89  A    between atoms: _223  and  _224
REMARK   90  A    between atoms: _223  and  _226
REMARK   91  A    between atoms: _229  and  _231
REMARK   92  A    between atoms: _231  and  _232
REMARK   93  A    between atoms: _231  and  _234
REMARK   94  A    between atoms: _234  and  _235
REMARK   95  A    between atoms: _235  and  _236
REMARK   96  A    between atoms: _236  and  _237
REMARK   97  A    between atoms: _237  and  _238
REMARK   98  A    between atoms: _242  and  _244
REMARK   99  A    between atoms: _244  and  _245
REMARK  100  A    between atoms: _244  and  _247
REMARK  101  A    between atoms: _247  and  _248
REMARK  102  A    between atoms: _248  and  _249
REMARK  103  A    between atoms: _249  and  _250
REMARK  104  A    between atoms: _250  and  _251
REMARK  105  A    between atoms: _255  and  _257
REMARK  106  A    between atoms: _257  and  _258
REMARK  107  A    between atoms: _257  and  _260
REMARK  108  A    between atoms: _260  and  _261
REMARK  109  A    between atoms: _264  and  _266
REMARK  110  A    between atoms: _266  and  _267
REMARK  111  A    between atoms: _266  and  _269
REMARK  112  A    between atoms: _269  and  _270
REMARK  113  A    between atoms: _273  and  _275
REMARK  114  A    between atoms: _275  and  _276
REMARK  115  A    between atoms: _275  and  _278
REMARK  116  A    between atoms: _278  and  _279
REMARK  117  A    between atoms: _279  and  _280
REMARK  118  A    between atoms: _282  and  _284
REMARK  119  A    between atoms: _284  and  _285
REMARK  120  A    between atoms: _287  and  _289
REMARK  121  A    between atoms: _289  and  _290
REMARK  122  A    between atoms: _289  and  _292
REMARK  123  A    between atoms: _292  and  _293
REMARK  124  A    between atoms: _298  and  _300
REMARK  125  A    between atoms: _300  and  _301
REMARK  126  A    between atoms: _300  and  _303
REMARK  127  A    between atoms: _303  and  _304
REMARK  128  A    between atoms: _307  and  _309
REMARK  129  A    between atoms: _309  and  _310
REMARK  130  A    between atoms: _309  and  _312
REMARK  131  A    between atoms: _312  and  _313
REMARK  132  A    between atoms: _316  and  _318
REMARK  133  A    between atoms: _318  and  _319
REMARK  134  A    between atoms: _318  and  _321
REMARK  135  A    between atoms: _321  and  _322
REMARK  136  A    between atoms: _322  and  _323
REMARK  137  A    between atoms: _325  and  _327
REMARK  138  A    between atoms: _327  and  _328
REMARK  139  A    between atoms: _327  and  _330
REMARK  140  A    between atoms: _330  and  _331
REMARK  141  A    between atoms: _331  and  _332
REMARK  142  A    between atoms: _332  and  _333
REMARK  143  A    between atoms: _333  and  _334
REMARK  144  A    between atoms: _338  and  _340
REMARK  145  A    between atoms: _340  and  _341
REMARK  146  A    between atoms: _340  and  _343
REMARK  147  A    between atoms: _343  and  _344
REMARK  148  A    between atoms: _349  and  _351
REMARK  149  A    between atoms: _351  and  _352
REMARK  150  A    between atoms: _351  and  _354
REMARK  151  A    between atoms: _354  and  _355
REMARK  152  A    between atoms: _360  and  _361
REMARK  153  A    between atoms: _363  and  _365
REMARK  154  A    between atoms: _365  and  _366
REMARK  155  A    between atoms: _365  and  _368
REMARK  156  A    between atoms: _368  and  _369
REMARK  157  A    between atoms: _369  and  _370
REMARK  158  A    between atoms: _373  and  _375
REMARK  159  A    between atoms: _375  and  _376
REMARK  160  A    between atoms: _379  and  _381
REMARK  161  A    between atoms: _381  and  _382
REMARK  162  A    between atoms: _381  and  _384
REMARK  163  A    between atoms: _384  and  _385
REMARK  164  A    between atoms: _388  and  _390
REMARK  165  A    between atoms: _390  and  _391
REMARK  166  A    between atoms: _393  and  _395
REMARK  167  A    between atoms: _395  and  _396
REMARK  168  A    between atoms: _395  and  _398
REMARK  169  A    between atoms: _398  and  _399
REMARK  170  A    between atoms: _399  and  _400
REMARK  171  A    between atoms: _400  and  _401
REMARK  172  A    between atoms: _411  and  _412
REMARK  173  A    between atoms: _417  and  _419
REMARK  174  A    between atoms: _419  and  _420
REMARK  175  A    between atoms: _419  and  _422
REMARK  176  A    between atoms: _422  and  _423
REMARK  177  A    between atoms: _427  and  _428
REMARK  178  A    between atoms: _433  and  _435
REMARK  179  A    between atoms: _435  and  _436
REMARK  180  A    between atoms: _438  and  _440
REMARK  181  A    between atoms: _440  and  _441
REMARK  182  A    between atoms: _440  and  _443
REMARK  183  A    between atoms: _443  and  _444
REMARK  184  A    between atoms: _444  and  _445
REMARK  185  A    between atoms: _445  and  _446
REMARK  186  A    between atoms: _455  and  _457
REMARK  187  A    between atoms: _457  and  _458
REMARK  188  A    between atoms: _457  and  _460
REMARK  189  A    between atoms: _460  and  _461
REMARK  190  A    between atoms: _466  and  _468
REMARK  191  A    between atoms: _468  and  _469
REMARK  192  A    between atoms: _468  and  _471
REMARK  193  A    between atoms: _471  and  _472
REMARK  194  A    between atoms: _478  and  _480
REMARK  195  A    between atoms: _480  and  _481
REMARK  196  A    between atoms: _480  and  _483
REMARK  197  A    between atoms: _483  and  _484
REMARK  198  A    between atoms: _487  and  _489
REMARK  199  A    between atoms: _489  and  _490
REMARK  200  A    between atoms: _489  and  _492
REMARK  201  A    between atoms: _492  and  _493
REMARK  202  A    between atoms: _499  and  _501
REMARK  203  A    between atoms: _501  and  _502
REMARK  204  A    between atoms: _504  and  _506
REMARK  205  A    between atoms: _506  and  _507
REMARK  206  A    between atoms: _509  and  _511
REMARK  207  A    between atoms: _511  and  _512
REMARK  208  A    between atoms: _511  and  _514
REMARK  209  A    between atoms: _514  and  _515
REMARK  210  A    between atoms: _520  and  _521
REMARK  211  A    between atoms: _523  and  _525
REMARK  212  A    between atoms: _525  and  _526
REMARK  213  A    between atoms: _525  and  _528
REMARK  214  A    between atoms: _528  and  _529
REMARK  215  A    between atoms: _534  and  _535
REMARK  216  A    between atoms: _537  and  _539
REMARK  217  A    between atoms: _539  and  _540
REMARK  218  A    between atoms: _539  and  _542
REMARK  219  A    between atoms: _542  and  _543
REMARK  220  A    between atoms: _546  and  _548
REMARK  221  A    between atoms: _548  and  _549
REMARK  222  A    between atoms: _548  and  _551
REMARK  223  A    between atoms: _551  and  _552
REMARK  224  A    between atoms: _555  and  _557
REMARK  225  A    between atoms: _557  and  _558
REMARK  226  A    between atoms: _557  and  _560
REMARK  227  A    between atoms: _560  and  _561
REMARK  228  A    between atoms: _561  and  _562
REMARK  229  A    between atoms: _562  and  _563
REMARK  230  A    between atoms: _563  and  _564
REMARK  231  A    between atoms: _568  and  _570
REMARK  232  A    between atoms: _570  and  _571
REMARK  233  A    between atoms: _570  and  _573
REMARK  234  A    between atoms: _573  and  _574
REMARK  235  A    between atoms: _577  and  _579
REMARK  236  A    between atoms: _579  and  _580
REMARK  237  A    between atoms: _579  and  _582
REMARK  238  A    between atoms: _582  and  _583
REMARK  239  A    between atoms: _586  and  _588
REMARK  240  A    between atoms: _588  and  _589
REMARK  241  A    between atoms: _588  and  _591
REMARK  242  A    between atoms: _591  and  _592
REMARK  243  A    between atoms: _597  and  _598
REMARK  244  A    between atoms: _600  and  _602
REMARK  245  A    between atoms: _602  and  _603
REMARK  246  A    between atoms: _602  and  _605
REMARK  247  A    between atoms: _605  and  _606
REMARK                            x       y       z     vdW  Elec       q    Type
REMARK                         _______ _______ _______ _____ _____    ______ ____
ROOT
ATOM      1  O   HOH     1      30.955 -34.583  -0.125  0.00  0.00    +0.000 OA
ENDROOT
TORSDOF 0
REMARK  Name = ../refined-set-2016/4elg/4elg_pocket.pdb
REMARK  247 active torsions:
REMARK  status: ('A' for Active; 'I' for Inactive)
REMARK    1  A    between atoms: _1  and  _3
REMARK    2  A    between atoms: _3  and  _4
REMARK    3  A    between atoms: _3  and  _6
REMARK    4  A    between atoms: _6  and  _7
REMARK    5  A    between atoms: _13  and  _15
REMARK    6  A    between atoms: _15  and  _16
REMARK    7  A    between atoms: _15  and  _18
REMARK    8  A    between atoms: _18  and  _19
REMARK    9  A    between atoms: _19  and  _20
REMARK   10  A    between atoms: _22  and  _24
REMARK   11  A    between atoms: _24  and  _25
REMARK   12  A    between atoms: _24  and  _27
REMARK   13  A    between atoms: _30  and  _32
REMARK   14  A    between atoms: _32  and  _33
REMARK   15  A    between atoms: _36  and  _38
REMARK   16  A    between atoms: _38  and  _39
REMARK   17  A    between atoms: _38  and  _41
REMARK   18  A    between atoms: _41  and  _42
REMARK   19  A    between atoms: _42  and  _43
REMARK   20  A    between atoms: _45  and  _47
REMARK   21  A    between atoms: _47  and  _48
REMARK   22  A    between atoms: _47  and  _50
REMARK   23  A    between atoms: _50  and  _51
REMARK   24  A    between atoms: _54  and  _56
REMARK   25  A    between atoms: _56  and  _57
REMARK   26  A    between atoms: _59  and  _61
REMARK   27  A    between atoms: _61  and  _62
REMARK   28  A    between atoms: _61  and  _64
REMARK   29  A    between atoms: _64  and  _65
REMARK   30  A    between atoms: _65  and  _66
REMARK   31  A    between atoms: _66  and  _67
REMARK   32  A    between atoms: _67  and  _68
REMARK   33  A    between atoms: _72  and  _74
REMARK   34  A    between atoms: _74  and  _75
REMARK   35  A    between atoms: _74  and  _77
REMARK   36  A    between atoms: _77  and  _78
REMARK   37  A    between atoms: _81  and  _83
REMARK   38  A    between atoms: _83  and  _84
REMARK   39  A    between atoms: _83  and  _86
REMARK   40  A    between atoms: _86  and  _87
REMARK   41  A    between atoms: _92  and  _94
REMARK   42  A    between atoms: _94  and  _95
REMARK   43  A    between atoms: _94  and  _97
REMARK   44  A    between atoms: _97  and  _98
REMARK   45  A    between atoms: _103  and  _105
REMARK   46  A    between atoms: _105  and  _106
REMARK   47  A    between atoms: _105  and  _108
REMARK   48  A    between atoms: _108  and  _109
REMARK   49  A    between atoms: _113  and  _114
REMARK   50  A    between atoms: _119  and  _121
REMARK   51  A    between atoms: _121  and  _122
REMARK   52  A    between atoms: _121  and  _124
REMARK   53  A    between atoms: _124  and  _125
REMARK   54  A    between atoms: _135  and  _137
REMARK   55  A    between atoms: _137  and  _138
REMARK   56  A    between atoms: _137  and  _140
REMARK   57  A    between atoms: _140  and  _141
REMARK   58  A    between atoms: _141  and  _142
REMARK   59  A    between atoms: _142  and  _143
REMARK   60  A    between atoms: _152  and  _154
REMARK   61  A    between atoms: _154  and  _155
REMARK   62  A    between atoms: _154  and  _157
REMARK   63  A    between atoms: _157  and  _158
REMARK   64  A    between atoms: _162  and  _163
REMARK   65  A    between atoms: _168  and  _170
REMARK   66  A    between atoms: _170  and  _171
REMARK   67  A    between atoms: _170  and  _173
REMARK   68  A    between atoms: _173  and  _174
REMARK   69  A    between atoms: _176  and  _178
REMARK   70  A    between atoms: _178  and  _179
REMARK   71  A    between atoms: _178  and  _181
REMARK   72  A    between atoms: _181  and  _182
REMARK   73  A    between atoms: _182  and  _183
REMARK   74  A    between atoms: _186  and  _188
REMARK   75  A    between atoms: _188  and  _189
REMARK   76  A    between atoms: _188  and  _191
REMARK   77  A    between atoms: _191  and  _192
REMARK   78  A    between atoms: _195  and  _197
REMARK   79  A    between atoms: _197  and  _198
REMARK   80  A    between atoms: _197  and  _200
REMARK   81  A    between atoms: _200  and  _201
REMARK   82  A    between atoms: _201  and  _202
REMARK   83  A    between atoms: _207  and  _209
REMARK   84  A    between atoms: _209  and  _210
REMARK   85  A    between atoms: _209  and  _212
REMARK   86  A    between atoms: _212  and  _213
REMARK   87  A    between atoms: _218  and  _219
REMARK   88  A    between atoms: _221  and  _223
REMARK   89  A    between atoms: _223  and  _224
REMARK   90  A    between atoms: _223  and  _226
REMARK   91  A    between atoms: _229  and  _231
REMARK   92  A    between atoms: _231  and  _232
REMARK   93  A    between atoms: _231  and  _234
REMARK   94  A    between atoms: _234  and  _235
REMARK   95  A    between atoms: _235  and  _236
REMARK   96  A    between atoms: _236  and  _237
REMARK   97  A    between atoms: _237  and  _238
REMARK   98  A    between atoms: _242  and  _244
REMARK   99  A    between atoms: _244  and  _245
REMARK  100  A    between atoms: _244  and  _247
REMARK  101  A    between atoms: _247  and  _248
REMARK  102  A    between atoms: _248  and  _249
REMARK  103  A    between atoms: _249  and  _250
REMARK  104  A    between atoms: _250  and  _251
REMARK  105  A    between atoms: _255  and  _257
REMARK  106  A    between atoms: _257  and  _258
REMARK  107  A    between atoms: _257  and  _260
REMARK  108  A    between atoms: _260  and  _261
REMARK  109  A    between atoms: _264  and  _266
REMARK  110  A    between atoms: _266  and  _267
REMARK  111  A    between atoms: _266  and  _269
REMARK  112  A    between atoms: _269  and  _270
REMARK  113  A    between atoms: _273  and  _275
REMARK  114  A    between atoms: _275  and  _276
REMARK  115  A    between atoms: _275  and  _278
REMARK  116  A    between atoms: _278  and  _279
REMARK  117  A    between atoms: _279  and  _280
REMARK  118  A    between atoms: _282  and  _284
REMARK  119  A    between atoms: _284  and  _285
REMARK  120  A    between atoms: _287  and  _289
REMARK  121  A    between atoms: _289  and  _290
REMARK  122  A    between atoms: _289  and  _292
REMARK  123  A    between atoms: _292  and  _293
REMARK  124  A    between atoms: _298  and  _300
REMARK  125  A    between atoms: _300  and  _301
REMARK  126  A    between atoms: _300  and  _303
REMARK  127  A    between atoms: _303  and  _304
REMARK  128  A    between atoms: _307  and  _309
REMARK  129  A    between atoms: _309  and  _310
REMARK  130  A    between atoms: _309  and  _312
REMARK  131  A    between atoms: _312  and  _313
REMARK  132  A    between atoms: _316  and  _318
REMARK  133  A    between atoms: _318  and  _319
REMARK  134  A    between atoms: _318  and  _321
REMARK  135  A    between atoms: _321  and  _322
REMARK  136  A    between atoms: _322  and  _323
REMARK  137  A    between atoms: _325  and  _327
REMARK  138  A    between atoms: _327  and  _328
REMARK  139  A    between atoms: _327  and  _330
REMARK  140  A    between atoms: _330  and  _331
REMARK  141  A    between atoms: _331  and  _332
REMARK  142  A    between atoms: _332  and  _333
REMARK  143  A    between atoms: _333  and  _334
REMARK  144  A    between atoms: _338  and  _340
REMARK  145  A    between atoms: _340  and  _341
REMARK  146  A    between atoms: _340  and  _343
REMARK  147  A    between atoms: _343  and  _344
REMARK  148  A    between atoms: _349  and  _351
REMARK  149  A    between atoms: _351  and  _352
REMARK  150  A    between atoms: _351  and  _354
REMARK  151  A    between atoms: _354  and  _355
REMARK  152  A    between atoms: _360  and  _361
REMARK  153  A    between atoms: _363  and  _365
REMARK  154  A    between atoms: _365  and  _366
REMARK  155  A    between atoms: _365  and  _368
REMARK  156  A    between atoms: _368  and  _369
REMARK  157  A    between atoms: _369  and  _370
REMARK  158  A    between atoms: _373  and  _375
REMARK  159  A    between atoms: _375  and  _376
REMARK  160  A    between atoms: _379  and  _381
REMARK  161  A    between atoms: _381  and  _382
REMARK  162  A    between atoms: _381  and  _384
REMARK  163  A    between atoms: _384  and  _385
REMARK  164  A    between atoms: _388  and  _390
REMARK  165  A    between atoms: _390  and  _391
REMARK  166  A    between atoms: _393  and  _395
REMARK  167  A    between atoms: _395  and  _396
REMARK  168  A    between atoms: _395  and  _398
REMARK  169  A    between atoms: _398  and  _399
REMARK  170  A    between atoms: _399  and  _400
REMARK  171  A    between atoms: _400  and  _401
REMARK  172  A    between atoms: _411  and  _412
REMARK  173  A    between atoms: _417  and  _419
REMARK  174  A    between atoms: _419  and  _420
REMARK  175  A    between atoms: _419  and  _422
REMARK  176  A    between atoms: _422  and  _423
REMARK  177  A    between atoms: _427  and  _428
REMARK  178  A    between atoms: _433  and  _435
REMARK  179  A    between atoms: _435  and  _436
REMARK  180  A    between atoms: _438  and  _440
REMARK  181  A    between atoms: _440  and  _441
REMARK  182  A    between atoms: _440  and  _443
REMARK  183  A    between atoms: _443  and  _444
REMARK  184  A    between atoms: _444  and  _445
REMARK  185  A    between atoms: _445  and  _446
REMARK  186  A    between atoms: _455  and  _457
REMARK  187  A    between atoms: _457  and  _458
REMARK  188  A    between atoms: _457  and  _460
REMARK  189  A    between atoms: _460  and  _461
REMARK  190  A    between atoms: _466  and  _468
REMARK  191  A    between atoms: _468  and  _469
REMARK  192  A    between atoms: _468  and  _471
REMARK  193  A    between atoms: _471  and  _472
REMARK  194  A    between atoms: _478  and  _480
REMARK  195  A    between atoms: _480  and  _481
REMARK  196  A    between atoms: _480  and  _483
REMARK  197  A    between atoms: _483  and  _484
REMARK  198  A    between atoms: _487  and  _489
REMARK  199  A    between atoms: _489  and  _490
REMARK  200  A    between atoms: _489  and  _492
REMARK  201  A    between atoms: _492  and  _493
REMARK  202  A    between atoms: _499  and  _501
REMARK  203  A    between atoms: _501  and  _502
REMARK  204  A    between atoms: _504  and  _506
REMARK  205  A    between atoms: _506  and  _507
REMARK  206  A    between atoms: _509  and  _511
REMARK  207  A    between atoms: _511  and  _512
REMARK  208  A    between atoms: _511  and  _514
REMARK  209  A    between atoms: _514  and  _515
REMARK  210  A    between atoms: _520  and  _521
REMARK  211  A    between atoms: _523  and  _525
REMARK  212  A    between atoms: _525  and  _526
REMARK  213  A    between atoms: _525  and  _528
REMARK  214  A    between atoms: _528  and  _529
REMARK  215  A    between atoms: _534  and  _535
REMARK  216  A    between atoms: _537  and  _539
REMARK  217  A    between atoms: _539  and  _540
REMARK  218  A    between atoms: _539  and  _542
REMARK  219  A    between atoms: _542  and  _543
REMARK  220  A    between atoms: _546  and  _548
REMARK  221  A    between atoms: _548  and  _549
REMARK  222  A    between atoms: _548  and  _551
REMARK  223  A    between atoms: _551  and  _552
REMARK  224  A    between atoms: _555  and  _557
REMARK  225  A    between atoms: _557  and  _558
REMARK  226  A    between atoms: _557  and  _560
REMARK  227  A    between atoms: _560  and  _561
REMARK  228  A    between atoms: _561  and  _562
REMARK  229  A    between atoms: _562  and  _563
REMARK  230  A    between atoms: _563  and  _564
REMARK  231  A    between atoms: _568  and  _570
REMARK  232  A    between atoms: _570  and  _571
REMARK  233  A    between atoms: _570  and  _573
REMARK  234  A    between atoms: _573  and  _574
REMARK  235  A    between atoms: _577  and  _579
REMARK  236  A    between atoms: _579  and  _580
REMARK  237  A    between atoms: _579  and  _582
REMARK  238  A    between atoms: _582  and  _583
REMARK  239  A    between atoms: _586  and  _588
REMARK  240  A    between atoms: _588  and  _589
REMARK  241  A    between atoms: _588  and  _591
REMARK  242  A    between atoms: _591  and  _592
REMARK  243  A    between atoms: _597  and  _598
REMARK  244  A    between atoms: _600  and  _602
REMARK  245  A    between atoms: _602  and  _603
REMARK  246  A    between atoms: _602  and  _605
REMARK  247  A    between atoms: _605  and  _606
REMARK                            x       y       z     vdW  Elec       q    Type
REMARK                         _______ _______ _______ _____ _____    ______ ____
ROOT
ATOM      1  O   HOH     1       9.766 -23.668  -2.968  0.00  0.00    +0.000 OA
ENDROOT
TORSDOF 0
REMARK  Name = ../refined-set-2016/4elg/4elg_pocket.pdb
REMARK  247 active torsions:
REMARK  status: ('A' for Active; 'I' for Inactive)
REMARK    1  A    between atoms: _1  and  _3
REMARK    2  A    between atoms: _3  and  _4
REMARK    3  A    between atoms: _3  and  _6
REMARK    4  A    between atoms: _6  and  _7
REMARK    5  A    between atoms: _13  and  _15
REMARK    6  A    between atoms: _15  and  _16
REMARK    7  A    between atoms: _15  and  _18
REMARK    8  A    between atoms: _18  and  _19
REMARK    9  A    between atoms: _19  and  _20
REMARK   10  A    between atoms: _22  and  _24
REMARK   11  A    between atoms: _24  and  _25
REMARK   12  A    between atoms: _24  and  _27
REMARK   13  A    between atoms: _30  and  _32
REMARK   14  A    between atoms: _32  and  _33
REMARK   15  A    between atoms: _36  and  _38
REMARK   16  A    between atoms: _38  and  _39
REMARK   17  A    between atoms: _38  and  _41
REMARK   18  A    between atoms: _41  and  _42
REMARK   19  A    between atoms: _42  and  _43
REMARK   20  A    between atoms: _45  and  _47
REMARK   21  A    between atoms: _47  and  _48
REMARK   22  A    between atoms: _47  and  _50
REMARK   23  A    between atoms: _50  and  _51
REMARK   24  A    between atoms: _54  and  _56
REMARK   25  A    between atoms: _56  and  _57
REMARK   26  A    between atoms: _59  and  _61
REMARK   27  A    between atoms: _61  and  _62
REMARK   28  A    between atoms: _61  and  _64
REMARK   29  A    between atoms: _64  and  _65
REMARK   30  A    between atoms: _65  and  _66
REMARK   31  A    between atoms: _66  and  _67
REMARK   32  A    between atoms: _67  and  _68
REMARK   33  A    between atoms: _72  and  _74
REMARK   34  A    between atoms: _74  and  _75
REMARK   35  A    between atoms: _74  and  _77
REMARK   36  A    between atoms: _77  and  _78
REMARK   37  A    between atoms: _81  and  _83
REMARK   38  A    between atoms: _83  and  _84
REMARK   39  A    between atoms: _83  and  _86
REMARK   40  A    between atoms: _86  and  _87
REMARK   41  A    between atoms: _92  and  _94
REMARK   42  A    between atoms: _94  and  _95
REMARK   43  A    between atoms: _94  and  _97
REMARK   44  A    between atoms: _97  and  _98
REMARK   45  A    between atoms: _103  and  _105
REMARK   46  A    between atoms: _105  and  _106
REMARK   47  A    between atoms: _105  and  _108
REMARK   48  A    between atoms: _108  and  _109
REMARK   49  A    between atoms: _113  and  _114
REMARK   50  A    between atoms: _119  and  _121
REMARK   51  A    between atoms: _121  and  _122
REMARK   52  A    between atoms: _121  and  _124
REMARK   53  A    between atoms: _124  and  _125
REMARK   54  A    between atoms: _135  and  _137
REMARK   55  A    between atoms: _137  and  _138
REMARK   56  A    between atoms: _137  and  _140
REMARK   57  A    between atoms: _140  and  _141
REMARK   58  A    between atoms: _141  and  _142
REMARK   59  A    between atoms: _142  and  _143
REMARK   60  A    between atoms: _152  and  _154
REMARK   61  A    between atoms: _154  and  _155
REMARK   62  A    between atoms: _154  and  _157
REMARK   63  A    between atoms: _157  and  _158
REMARK   64  A    between atoms: _162  and  _163
REMARK   65  A    between atoms: _168  and  _170
REMARK   66  A    between atoms: _170  and  _171
REMARK   67  A    between atoms: _170  and  _173
REMARK   68  A    between atoms: _173  and  _174
REMARK   69  A    between atoms: _176  and  _178
REMARK   70  A    between atoms: _178  and  _179
REMARK   71  A    between atoms: _178  and  _181
REMARK   72  A    between atoms: _181  and  _182
REMARK   73  A    between atoms: _182  and  _183
REMARK   74  A    between atoms: _186  and  _188
REMARK   75  A    between atoms: _188  and  _189
REMARK   76  A    between atoms: _188  and  _191
REMARK   77  A    between atoms: _191  and  _192
REMARK   78  A    between atoms: _195  and  _197
REMARK   79  A    between atoms: _197  and  _198
REMARK   80  A    between atoms: _197  and  _200
REMARK   81  A    between atoms: _200  and  _201
REMARK   82  A    between atoms: _201  and  _202
REMARK   83  A    between atoms: _207  and  _209
REMARK   84  A    between atoms: _209  and  _210
REMARK   85  A    between atoms: _209  and  _212
REMARK   86  A    between atoms: _212  and  _213
REMARK   87  A    between atoms: _218  and  _219
REMARK   88  A    between atoms: _221  and  _223
REMARK   89  A    between atoms: _223  and  _224
REMARK   90  A    between atoms: _223  and  _226
REMARK   91  A    between atoms: _229  and  _231
REMARK   92  A    between atoms: _231  and  _232
REMARK   93  A    between atoms: _231  and  _234
REMARK   94  A    between atoms: _234  and  _235
REMARK   95  A    between atoms: _235  and  _236
REMARK   96  A    between atoms: _236  and  _237
REMARK   97  A    between atoms: _237  and  _238
REMARK   98  A    between atoms: _242  and  _244
REMARK   99  A    between atoms: _244  and  _245
REMARK  100  A    between atoms: _244  and  _247
REMARK  101  A    between atoms: _247  and  _248
REMARK  102  A    between atoms: _248  and  _249
REMARK  103  A    between atoms: _249  and  _250
REMARK  104  A    between atoms: _250  and  _251
REMARK  105  A    between atoms: _255  and  _257
REMARK  106  A    between atoms: _257  and  _258
REMARK  107  A    between atoms: _257  and  _260
REMARK  108  A    between atoms: _260  and  _261
REMARK  109  A    between atoms: _264  and  _266
REMARK  110  A    between atoms: _266  and  _267
REMARK  111  A    between atoms: _266  and  _269
REMARK  112  A    between atoms: _269  and  _270
REMARK  113  A    between atoms: _273  and  _275
REMARK  114  A    between atoms: _275  and  _276
REMARK  115  A    between atoms: _275  and  _278
REMARK  116  A    between atoms: _278  and  _279
REMARK  117  A    between atoms: _279  and  _280
REMARK  118  A    between atoms: _282  and  _284
REMARK  119  A    between atoms: _284  and  _285
REMARK  120  A    between atoms: _287  and  _289
REMARK  121  A    between atoms: _289  and  _290
REMARK  122  A    between atoms: _289  and  _292
REMARK  123  A    between atoms: _292  and  _293
REMARK  124  A    between atoms: _298  and  _300
REMARK  125  A    between atoms: _300  and  _301
REMARK  126  A    between atoms: _300  and  _303
REMARK  127  A    between atoms: _303  and  _304
REMARK  128  A    between atoms: _307  and  _309
REMARK  129  A    between atoms: _309  and  _310
REMARK  130  A    between atoms: _309  and  _312
REMARK  131  A    between atoms: _312  and  _313
REMARK  132  A    between atoms: _316  and  _318
REMARK  133  A    between atoms: _318  and  _319
REMARK  134  A    between atoms: _318  and  _321
REMARK  135  A    between atoms: _321  and  _322
REMARK  136  A    between atoms: _322  and  _323
REMARK  137  A    between atoms: _325  and  _327
REMARK  138  A    between atoms: _327  and  _328
REMARK  139  A    between atoms: _327  and  _330
REMARK  140  A    between atoms: _330  and  _331
REMARK  141  A    between atoms: _331  and  _332
REMARK  142  A    between atoms: _332  and  _333
REMARK  143  A    between atoms: _333  and  _334
REMARK  144  A    between atoms: _338  and  _340
REMARK  145  A    between atoms: _340  and  _341
REMARK  146  A    between atoms: _340  and  _343
REMARK  147  A    between atoms: _343  and  _344
REMARK  148  A    between atoms: _349  and  _351
REMARK  149  A    between atoms: _351  and  _352
REMARK  150  A    between atoms: _351  and  _354
REMARK  151  A    between atoms: _354  and  _355
REMARK  152  A    between atoms: _360  and  _361
REMARK  153  A    between atoms: _363  and  _365
REMARK  154  A    between atoms: _365  and  _366
REMARK  155  A    between atoms: _365  and  _368
REMARK  156  A    between atoms: _368  and  _369
REMARK  157  A    between atoms: _369  and  _370
REMARK  158  A    between atoms: _373  and  _375
REMARK  159  A    between atoms: _375  and  _376
REMARK  160  A    between atoms: _379  and  _381
REMARK  161  A    between atoms: _381  and  _382
REMARK  162  A    between atoms: _381  and  _384
REMARK  163  A    between atoms: _384  and  _385
REMARK  164  A    between atoms: _388  and  _390
REMARK  165  A    between atoms: _390  and  _391
REMARK  166  A    between atoms: _393  and  _395
REMARK  167  A    between atoms: _395  and  _396
REMARK  168  A    between atoms: _395  and  _398
REMARK  169  A    between atoms: _398  and  _399
REMARK  170  A    between atoms: _399  and  _400
REMARK  171  A    between atoms: _400  and  _401
REMARK  172  A    between atoms: _411  and  _412
REMARK  173  A    between atoms: _417  and  _419
REMARK  174  A    between atoms: _419  and  _420
REMARK  175  A    between atoms: _419  and  _422
REMARK  176  A    between atoms: _422  and  _423
REMARK  177  A    between atoms: _427  and  _428
REMARK  178  A    between atoms: _433  and  _435
REMARK  179  A    between atoms: _435  and  _436
REMARK  180  A    between atoms: _438  and  _440
REMARK  181  A    between atoms: _440  and  _441
REMARK  182  A    between atoms: _440  and  _443
REMARK  183  A    between atoms: _443  and  _444
REMARK  184  A    between atoms: _444  and  _445
REMARK  185  A    between atoms: _445  and  _446
REMARK  186  A    between atoms: _455  and  _457
REMARK  187  A    between atoms: _457  and  _458
REMARK  188  A    between atoms: _457  and  _460
REMARK  189  A    between atoms: _460  and  _461
REMARK  190  A    between atoms: _466  and  _468
REMARK  191  A    between atoms: _468  and  _469
REMARK  192  A    between atoms: _468  and  _471
REMARK  193  A    between atoms: _471  and  _472
REMARK  194  A    between atoms: _478  and  _480
REMARK  195  A    between atoms: _480  and  _481
REMARK  196  A    between atoms: _480  and  _483
REMARK  197  A    between atoms: _483  and  _484
REMARK  198  A    between atoms: _487  and  _489
REMARK  199  A    between atoms: _489  and  _490
REMARK  200  A    between atoms: _489  and  _492
REMARK  201  A    between atoms: _492  and  _493
REMARK  202  A    between atoms: _499  and  _501
REMARK  203  A    between atoms: _501  and  _502
REMARK  204  A    between atoms: _504  and  _506
REMARK  205  A    between atoms: _506  and  _507
REMARK  206  A    between atoms: _509  and  _511
REMARK  207  A    between atoms: _511  and  _512
REMARK  208  A    between atoms: _511  and  _514
REMARK  209  A    between atoms: _514  and  _515
REMARK  210  A    between atoms: _520  and  _521
REMARK  211  A    between atoms: _523  and  _525
REMARK  212  A    between atoms: _525  and  _526
REMARK  213  A    between atoms: _525  and  _528
REMARK  214  A    between atoms: _528  and  _529
REMARK  215  A    between atoms: _534  and  _535
REMARK  216  A    between atoms: _537  and  _539
REMARK  217  A    between atoms: _539  and  _540
REMARK  218  A    between atoms: _539  and  _542
REMARK  219  A    between atoms: _542  and  _543
REMARK  220  A    between atoms: _546  and  _548
REMARK  221  A    between atoms: _548  and  _549
REMARK  222  A    between atoms: _548  and  _551
REMARK  223  A    between atoms: _551  and  _552
REMARK  224  A    between atoms: _555  and  _557
REMARK  225  A    between atoms: _557  and  _558
REMARK  226  A    between atoms: _557  and  _560
REMARK  227  A    between atoms: _560  and  _561
REMARK  228  A    between atoms: _561  and  _562
REMARK  229  A    between atoms: _562  and  _563
REMARK  230  A    between atoms: _563  and  _564
REMARK  231  A    between atoms: _568  and  _570
REMARK  232  A    between atoms: _570  and  _571
REMARK  233  A    between atoms: _570  and  _573
REMARK  234  A    between atoms: _573  and  _574
REMARK  235  A    between atoms: _577  and  _579
REMARK  236  A    between atoms: _579  and  _580
REMARK  237  A    between atoms: _579  and  _582
REMARK  238  A    between atoms: _582  and  _583
REMARK  239  A    between atoms: _586  and  _588
REMARK  240  A    between atoms: _588  and  _589
REMARK  241  A    between atoms: _588  and  _591
REMARK  242  A    between atoms: _591  and  _592
REMARK  243  A    between atoms: _597  and  _598
REMARK  244  A    between atoms: _600  and  _602
REMARK  245  A    between atoms: _602  and  _603
REMARK  246  A    between atoms: _602  and  _605
REMARK  247  A    between atoms: _605  and  _606
REMARK                            x       y       z     vdW  Elec       q    Type
REMARK                         _______ _______ _______ _____ _____    ______ ____
ROOT
ATOM      1  O   HOH     1      21.169 -30.214   5.728  0.00  0.00    +0.000 OA
ENDROOT
TORSDOF 0
REMARK  Name = ../refined-set-2016/4elg/4elg_pocket.pdb
REMARK  247 active torsions:
REMARK  status: ('A' for Active; 'I' for Inactive)
REMARK    1  A    between atoms: _1  and  _3
REMARK    2  A    between atoms: _3  and  _4
REMARK    3  A    between atoms: _3  and  _6
REMARK    4  A    between atoms: _6  and  _7
REMARK    5  A    between atoms: _13  and  _15
REMARK    6  A    between atoms: _15  and  _16
REMARK    7  A    between atoms: _15  and  _18
REMARK    8  A    between atoms: _18  and  _19
REMARK    9  A    between atoms: _19  and  _20
REMARK   10  A    between atoms: _22  and  _24
REMARK   11  A    between atoms: _24  and  _25
REMARK   12  A    between atoms: _24  and  _27
REMARK   13  A    between atoms: _30  and  _32
REMARK   14  A    between atoms: _32  and  _33
REMARK   15  A    between atoms: _36  and  _38
REMARK   16  A    between atoms: _38  and  _39
REMARK   17  A    between atoms: _38  and  _41
REMARK   18  A    between atoms: _41  and  _42
REMARK   19  A    between atoms: _42  and  _43
REMARK   20  A    between atoms: _45  and  _47
REMARK   21  A    between atoms: _47  and  _48
REMARK   22  A    between atoms: _47  and  _50
REMARK   23  A    between atoms: _50  and  _51
REMARK   24  A    between atoms: _54  and  _56
REMARK   25  A    between atoms: _56  and  _57
REMARK   26  A    between atoms: _59  and  _61
REMARK   27  A    between atoms: _61  and  _62
REMARK   28  A    between atoms: _61  and  _64
REMARK   29  A    between atoms: _64  and  _65
REMARK   30  A    between atoms: _65  and  _66
REMARK   31  A    between atoms: _66  and  _67
REMARK   32  A    between atoms: _67  and  _68
REMARK   33  A    between atoms: _72  and  _74
REMARK   34  A    between atoms: _74  and  _75
REMARK   35  A    between atoms: _74  and  _77
REMARK   36  A    between atoms: _77  and  _78
REMARK   37  A    between atoms: _81  and  _83
REMARK   38  A    between atoms: _83  and  _84
REMARK   39  A    between atoms: _83  and  _86
REMARK   40  A    between atoms: _86  and  _87
REMARK   41  A    between atoms: _92  and  _94
REMARK   42  A    between atoms: _94  and  _95
REMARK   43  A    between atoms: _94  and  _97
REMARK   44  A    between atoms: _97  and  _98
REMARK   45  A    between atoms: _103  and  _105
REMARK   46  A    between atoms: _105  and  _106
REMARK   47  A    between atoms: _105  and  _108
REMARK   48  A    between atoms: _108  and  _109
REMARK   49  A    between atoms: _113  and  _114
REMARK   50  A    between atoms: _119  and  _121
REMARK   51  A    between atoms: _121  and  _122
REMARK   52  A    between atoms: _121  and  _124
REMARK   53  A    between atoms: _124  and  _125
REMARK   54  A    between atoms: _135  and  _137
REMARK   55  A    between atoms: _137  and  _138
REMARK   56  A    between atoms: _137  and  _140
REMARK   57  A    between atoms: _140  and  _141
REMARK   58  A    between atoms: _141  and  _142
REMARK   59  A    between atoms: _142  and  _143
REMARK   60  A    between atoms: _152  and  _154
REMARK   61  A    between atoms: _154  and  _155
REMARK   62  A    between atoms: _154  and  _157
REMARK   63  A    between atoms: _157  and  _158
REMARK   64  A    between atoms: _162  and  _163
REMARK   65  A    between atoms: _168  and  _170
REMARK   66  A    between atoms: _170  and  _171
REMARK   67  A    between atoms: _170  and  _173
REMARK   68  A    between atoms: _173  and  _174
REMARK   69  A    between atoms: _176  and  _178
REMARK   70  A    between atoms: _178  and  _179
REMARK   71  A    between atoms: _178  and  _181
REMARK   72  A    between atoms: _181  and  _182
REMARK   73  A    between atoms: _182  and  _183
REMARK   74  A    between atoms: _186  and  _188
REMARK   75  A    between atoms: _188  and  _189
REMARK   76  A    between atoms: _188  and  _191
REMARK   77  A    between atoms: _191  and  _192
REMARK   78  A    between atoms: _195  and  _197
REMARK   79  A    between atoms: _197  and  _198
REMARK   80  A    between atoms: _197  and  _200
REMARK   81  A    between atoms: _200  and  _201
REMARK   82  A    between atoms: _201  and  _202
REMARK   83  A    between atoms: _207  and  _209
REMARK   84  A    between atoms: _209  and  _210
REMARK   85  A    between atoms: _209  and  _212
REMARK   86  A    between atoms: _212  and  _213
REMARK   87  A    between atoms: _218  and  _219
REMARK   88  A    between atoms: _221  and  _223
REMARK   89  A    between atoms: _223  and  _224
REMARK   90  A    between atoms: _223  and  _226
REMARK   91  A    between atoms: _229  and  _231
REMARK   92  A    between atoms: _231  and  _232
REMARK   93  A    between atoms: _231  and  _234
REMARK   94  A    between atoms: _234  and  _235
REMARK   95  A    between atoms: _235  and  _236
REMARK   96  A    between atoms: _236  and  _237
REMARK   97  A    between atoms: _237  and  _238
REMARK   98  A    between atoms: _242  and  _244
REMARK   99  A    between atoms: _244  and  _245
REMARK  100  A    between atoms: _244  and  _247
REMARK  101  A    between atoms: _247  and  _248
REMARK  102  A    between atoms: _248  and  _249
REMARK  103  A    between atoms: _249  and  _250
REMARK  104  A    between atoms: _250  and  _251
REMARK  105  A    between atoms: _255  and  _257
REMARK  106  A    between atoms: _257  and  _258
REMARK  107  A    between atoms: _257  and  _260
REMARK  108  A    between atoms: _260  and  _261
REMARK  109  A    between atoms: _264  and  _266
REMARK  110  A    between atoms: _266  and  _267
REMARK  111  A    between atoms: _266  and  _269
REMARK  112  A    between atoms: _269  and  _270
REMARK  113  A    between atoms: _273  and  _275
REMARK  114  A    between atoms: _275  and  _276
REMARK  115  A    between atoms: _275  and  _278
REMARK  116  A    between atoms: _278  and  _279
REMARK  117  A    between atoms: _279  and  _280
REMARK  118  A    between atoms: _282  and  _284
REMARK  119  A    between atoms: _284  and  _285
REMARK  120  A    between atoms: _287  and  _289
REMARK  121  A    between atoms: _289  and  _290
REMARK  122  A    between atoms: _289  and  _292
REMARK  123  A    between atoms: _292  and  _293
REMARK  124  A    between atoms: _298  and  _300
REMARK  125  A    between atoms: _300  and  _301
REMARK  126  A    between atoms: _300  and  _303
REMARK  127  A    between atoms: _303  and  _304
REMARK  128  A    between atoms: _307  and  _309
REMARK  129  A    between atoms: _309  and  _310
REMARK  130  A    between atoms: _309  and  _312
REMARK  131  A    between atoms: _312  and  _313
REMARK  132  A    between atoms: _316  and  _318
REMARK  133  A    between atoms: _318  and  _319
REMARK  134  A    between atoms: _318  and  _321
REMARK  135  A    between atoms: _321  and  _322
REMARK  136  A    between atoms: _322  and  _323
REMARK  137  A    between atoms: _325  and  _327
REMARK  138  A    between atoms: _327  and  _328
REMARK  139  A    between atoms: _327  and  _330
REMARK  140  A    between atoms: _330  and  _331
REMARK  141  A    between atoms: _331  and  _332
REMARK  142  A    between atoms: _332  and  _333
REMARK  143  A    between atoms: _333  and  _334
REMARK  144  A    between atoms: _338  and  _340
REMARK  145  A    between atoms: _340  and  _341
REMARK  146  A    between atoms: _340  and  _343
REMARK  147  A    between atoms: _343  and  _344
REMARK  148  A    between atoms: _349  and  _351
REMARK  149  A    between atoms: _351  and  _352
REMARK  150  A    between atoms: _351  and  _354
REMARK  151  A    between atoms: _354  and  _355
REMARK  152  A    between atoms: _360  and  _361
REMARK  153  A    between atoms: _363  and  _365
REMARK  154  A    between atoms: _365  and  _366
REMARK  155  A    between atoms: _365  and  _368
REMARK  156  A    between atoms: _368  and  _369
REMARK  157  A    between atoms: _369  and  _370
REMARK  158  A    between atoms: _373  and  _375
REMARK  159  A    between atoms: _375  and  _376
REMARK  160  A    between atoms: _379  and  _381
REMARK  161  A    between atoms: _381  and  _382
REMARK  162  A    between atoms: _381  and  _384
REMARK  163  A    between atoms: _384  and  _385
REMARK  164  A    between atoms: _388  and  _390
REMARK  165  A    between atoms: _390  and  _391
REMARK  166  A    between atoms: _393  and  _395
REMARK  167  A    between atoms: _395  and  _396
REMARK  168  A    between atoms: _395  and  _398
REMARK  169  A    between atoms: _398  and  _399
REMARK  170  A    between atoms: _399  and  _400
REMARK  171  A    between atoms: _400  and  _401
REMARK  172  A    between atoms: _411  and  _412
REMARK  173  A    between atoms: _417  and  _419
REMARK  174  A    between atoms: _419  and  _420
REMARK  175  A    between atoms: _419  and  _422
REMARK  176  A    between atoms: _422  and  _423
REMARK  177  A    between atoms: _427  and  _428
REMARK  178  A    between atoms: _433  and  _435
REMARK  179  A    between atoms: _435  and  _436
REMARK  180  A    between atoms: _438  and  _440
REMARK  181  A    between atoms: _440  and  _441
REMARK  182  A    between atoms: _440  and  _443
REMARK  183  A    between atoms: _443  and  _444
REMARK  184  A    between atoms: _444  and  _445
REMARK  185  A    between atoms: _445  and  _446
REMARK  186  A    between atoms: _455  and  _457
REMARK  187  A    between atoms: _457  and  _458
REMARK  188  A    between atoms: _457  and  _460
REMARK  189  A    between atoms: _460  and  _461
REMARK  190  A    between atoms: _466  and  _468
REMARK  191  A    between atoms: _468  and  _469
REMARK  192  A    between atoms: _468  and  _471
REMARK  193  A    between atoms: _471  and  _472
REMARK  194  A    between atoms: _478  and  _480
REMARK  195  A    between atoms: _480  and  _481
REMARK  196  A    between atoms: _480  and  _483
REMARK  197  A    between atoms: _483  and  _484
REMARK  198  A    between atoms: _487  and  _489
REMARK  199  A    between atoms: _489  and  _490
REMARK  200  A    between atoms: _489  and  _492
REMARK  201  A    between atoms: _492  and  _493
REMARK  202  A    between atoms: _499  and  _501
REMARK  203  A    between atoms: _501  and  _502
REMARK  204  A    between atoms: _504  and  _506
REMARK  205  A    between atoms: _506  and  _507
REMARK  206  A    between atoms: _509  and  _511
REMARK  207  A    between atoms: _511  and  _512
REMARK  208  A    between atoms: _511  and  _514
REMARK  209  A    between atoms: _514  and  _515
REMARK  210  A    between atoms: _520  and  _521
REMARK  211  A    between atoms: _523  and  _525
REMARK  212  A    between atoms: _525  and  _526
REMARK  213  A    between atoms: _525  and  _528
REMARK  214  A    between atoms: _528  and  _529
REMARK  215  A    between atoms: _534  and  _535
REMARK  216  A    between atoms: _537  and  _539
REMARK  217  A    between atoms: _539  and  _540
REMARK  218  A    between atoms: _539  and  _542
REMARK  219  A    between atoms: _542  and  _543
REMARK  220  A    between atoms: _546  and  _548
REMARK  221  A    between atoms: _548  and  _549
REMARK  222  A    between atoms: _548  and  _551
REMARK  223  A    between atoms: _551  and  _552
REMARK  224  A    between atoms: _555  and  _557
REMARK  225  A    between atoms: _557  and  _558
REMARK  226  A    between atoms: _557  and  _560
REMARK  227  A    between atoms: _560  and  _561
REMARK  228  A    between atoms: _561  and  _562
REMARK  229  A    between atoms: _562  and  _563
REMARK  230  A    between atoms: _563  and  _564
REMARK  231  A    between atoms: _568  and  _570
REMARK  232  A    between atoms: _570  and  _571
REMARK  233  A    between atoms: _570  and  _573
REMARK  234  A    between atoms: _573  and  _574
REMARK  235  A    between atoms: _577  and  _579
REMARK  236  A    between atoms: _579  and  _580
REMARK  237  A    between atoms: _579  and  _582
REMARK  238  A    between atoms: _582  and  _583
REMARK  239  A    between atoms: _586  and  _588
REMARK  240  A    between atoms: _588  and  _589
REMARK  241  A    between atoms: _588  and  _591
REMARK  242  A    between atoms: _591  and  _592
REMARK  243  A    between atoms: _597  and  _598
REMARK  244  A    between atoms: _600  and  _602
REMARK  245  A    between atoms: _602  and  _603
REMARK  246  A    between atoms: _602  and  _605
REMARK  247  A    between atoms: _605  and  _606
REMARK                            x       y       z     vdW  Elec       q    Type
REMARK                         _______ _______ _______ _____ _____    ______ ____
ROOT
ATOM      1  O   HOH     1      22.062 -29.417   7.555  0.00  0.00    +0.000 OA
ENDROOT
TORSDOF 0
REMARK  Name = ../refined-set-2016/4elg/4elg_pocket.pdb
REMARK  247 active torsions:
REMARK  status: ('A' for Active; 'I' for Inactive)
REMARK    1  A    between atoms: _1  and  _3
REMARK    2  A    between atoms: _3  and  _4
REMARK    3  A    between atoms: _3  and  _6
REMARK    4  A    between atoms: _6  and  _7
REMARK    5  A    between atoms: _13  and  _15
REMARK    6  A    between atoms: _15  and  _16
REMARK    7  A    between atoms: _15  and  _18
REMARK    8  A    between atoms: _18  and  _19
REMARK    9  A    between atoms: _19  and  _20
REMARK   10  A    between atoms: _22  and  _24
REMARK   11  A    between atoms: _24  and  _25
REMARK   12  A    between atoms: _24  and  _27
REMARK   13  A    between atoms: _30  and  _32
REMARK   14  A    between atoms: _32  and  _33
REMARK   15  A    between atoms: _36  and  _38
REMARK   16  A    between atoms: _38  and  _39
REMARK   17  A    between atoms: _38  and  _41
REMARK   18  A    between atoms: _41  and  _42
REMARK   19  A    between atoms: _42  and  _43
REMARK   20  A    between atoms: _45  and  _47
REMARK   21  A    between atoms: _47  and  _48
REMARK   22  A    between atoms: _47  and  _50
REMARK   23  A    between atoms: _50  and  _51
REMARK   24  A    between atoms: _54  and  _56
REMARK   25  A    between atoms: _56  and  _57
REMARK   26  A    between atoms: _59  and  _61
REMARK   27  A    between atoms: _61  and  _62
REMARK   28  A    between atoms: _61  and  _64
REMARK   29  A    between atoms: _64  and  _65
REMARK   30  A    between atoms: _65  and  _66
REMARK   31  A    between atoms: _66  and  _67
REMARK   32  A    between atoms: _67  and  _68
REMARK   33  A    between atoms: _72  and  _74
REMARK   34  A    between atoms: _74  and  _75
REMARK   35  A    between atoms: _74  and  _77
REMARK   36  A    between atoms: _77  and  _78
REMARK   37  A    between atoms: _81  and  _83
REMARK   38  A    between atoms: _83  and  _84
REMARK   39  A    between atoms: _83  and  _86
REMARK   40  A    between atoms: _86  and  _87
REMARK   41  A    between atoms: _92  and  _94
REMARK   42  A    between atoms: _94  and  _95
REMARK   43  A    between atoms: _94  and  _97
REMARK   44  A    between atoms: _97  and  _98
REMARK   45  A    between atoms: _103  and  _105
REMARK   46  A    between atoms: _105  and  _106
REMARK   47  A    between atoms: _105  and  _108
REMARK   48  A    between atoms: _108  and  _109
REMARK   49  A    between atoms: _113  and  _114
REMARK   50  A    between atoms: _119  and  _121
REMARK   51  A    between atoms: _121  and  _122
REMARK   52  A    between atoms: _121  and  _124
REMARK   53  A    between atoms: _124  and  _125
REMARK   54  A    between atoms: _135  and  _137
REMARK   55  A    between atoms: _137  and  _138
REMARK   56  A    between atoms: _137  and  _140
REMARK   57  A    between atoms: _140  and  _141
REMARK   58  A    between atoms: _141  and  _142
REMARK   59  A    between atoms: _142  and  _143
REMARK   60  A    between atoms: _152  and  _154
REMARK   61  A    between atoms: _154  and  _155
REMARK   62  A    between atoms: _154  and  _157
REMARK   63  A    between atoms: _157  and  _158
REMARK   64  A    between atoms: _162  and  _163
REMARK   65  A    between atoms: _168  and  _170
REMARK   66  A    between atoms: _170  and  _171
REMARK   67  A    between atoms: _170  and  _173
REMARK   68  A    between atoms: _173  and  _174
REMARK   69  A    between atoms: _176  and  _178
REMARK   70  A    between atoms: _178  and  _179
REMARK   71  A    between atoms: _178  and  _181
REMARK   72  A    between atoms: _181  and  _182
REMARK   73  A    between atoms: _182  and  _183
REMARK   74  A    between atoms: _186  and  _188
REMARK   75  A    between atoms: _188  and  _189
REMARK   76  A    between atoms: _188  and  _191
REMARK   77  A    between atoms: _191  and  _192
REMARK   78  A    between atoms: _195  and  _197
REMARK   79  A    between atoms: _197  and  _198
REMARK   80  A    between atoms: _197  and  _200
REMARK   81  A    between atoms: _200  and  _201
REMARK   82  A    between atoms: _201  and  _202
REMARK   83  A    between atoms: _207  and  _209
REMARK   84  A    between atoms: _209  and  _210
REMARK   85  A    between atoms: _209  and  _212
REMARK   86  A    between atoms: _212  and  _213
REMARK   87  A    between atoms: _218  and  _219
REMARK   88  A    between atoms: _221  and  _223
REMARK   89  A    between atoms: _223  and  _224
REMARK   90  A    between atoms: _223  and  _226
REMARK   91  A    between atoms: _229  and  _231
REMARK   92  A    between atoms: _231  and  _232
REMARK   93  A    between atoms: _231  and  _234
REMARK   94  A    between atoms: _234  and  _235
REMARK   95  A    between atoms: _235  and  _236
REMARK   96  A    between atoms: _236  and  _237
REMARK   97  A    between atoms: _237  and  _238
REMARK   98  A    between atoms: _242  and  _244
REMARK   99  A    between atoms: _244  and  _245
REMARK  100  A    between atoms: _244  and  _247
REMARK  101  A    between atoms: _247  and  _248
REMARK  102  A    between atoms: _248  and  _249
REMARK  103  A    between atoms: _249  and  _250
REMARK  104  A    between atoms: _250  and  _251
REMARK  105  A    between atoms: _255  and  _257
REMARK  106  A    between atoms: _257  and  _258
REMARK  107  A    between atoms: _257  and  _260
REMARK  108  A    between atoms: _260  and  _261
REMARK  109  A    between atoms: _264  and  _266
REMARK  110  A    between atoms: _266  and  _267
REMARK  111  A    between atoms: _266  and  _269
REMARK  112  A    between atoms: _269  and  _270
REMARK  113  A    between atoms: _273  and  _275
REMARK  114  A    between atoms: _275  and  _276
REMARK  115  A    between atoms: _275  and  _278
REMARK  116  A    between atoms: _278  and  _279
REMARK  117  A    between atoms: _279  and  _280
REMARK  118  A    between atoms: _282  and  _284
REMARK  119  A    between atoms: _284  and  _285
REMARK  120  A    between atoms: _287  and  _289
REMARK  121  A    between atoms: _289  and  _290
REMARK  122  A    between atoms: _289  and  _292
REMARK  123  A    between atoms: _292  and  _293
REMARK  124  A    between atoms: _298  and  _300
REMARK  125  A    between atoms: _300  and  _301
REMARK  126  A    between atoms: _300  and  _303
REMARK  127  A    between atoms: _303  and  _304
REMARK  128  A    between atoms: _307  and  _309
REMARK  129  A    between atoms: _309  and  _310
REMARK  130  A    between atoms: _309  and  _312
REMARK  131  A    between atoms: _312  and  _313
REMARK  132  A    between atoms: _316  and  _318
REMARK  133  A    between atoms: _318  and  _319
REMARK  134  A    between atoms: _318  and  _321
REMARK  135  A    between atoms: _321  and  _322
REMARK  136  A    between atoms: _322  and  _323
REMARK  137  A    between atoms: _325  and  _327
REMARK  138  A    between atoms: _327  and  _328
REMARK  139  A    between atoms: _327  and  _330
REMARK  140  A    between atoms: _330  and  _331
REMARK  141  A    between atoms: _331  and  _332
REMARK  142  A    between atoms: _332  and  _333
REMARK  143  A    between atoms: _333  and  _334
REMARK  144  A    between atoms: _338  and  _340
REMARK  145  A    between atoms: _340  and  _341
REMARK  146  A    between atoms: _340  and  _343
REMARK  147  A    between atoms: _343  and  _344
REMARK  148  A    between atoms: _349  and  _351
REMARK  149  A    between atoms: _351  and  _352
REMARK  150  A    between atoms: _351  and  _354
REMARK  151  A    between atoms: _354  and  _355
REMARK  152  A    between atoms: _360  and  _361
REMARK  153  A    between atoms: _363  and  _365
REMARK  154  A    between atoms: _365  and  _366
REMARK  155  A    between atoms: _365  and  _368
REMARK  156  A    between atoms: _368  and  _369
REMARK  157  A    between atoms: _369  and  _370
REMARK  158  A    between atoms: _373  and  _375
REMARK  159  A    between atoms: _375  and  _376
REMARK  160  A    between atoms: _379  and  _381
REMARK  161  A    between atoms: _381  and  _382
REMARK  162  A    between atoms: _381  and  _384
REMARK  163  A    between atoms: _384  and  _385
REMARK  164  A    between atoms: _388  and  _390
REMARK  165  A    between atoms: _390  and  _391
REMARK  166  A    between atoms: _393  and  _395
REMARK  167  A    between atoms: _395  and  _396
REMARK  168  A    between atoms: _395  and  _398
REMARK  169  A    between atoms: _398  and  _399
REMARK  170  A    between atoms: _399  and  _400
REMARK  171  A    between atoms: _400  and  _401
REMARK  172  A    between atoms: _411  and  _412
REMARK  173  A    between atoms: _417  and  _419
REMARK  174  A    between atoms: _419  and  _420
REMARK  175  A    between atoms: _419  and  _422
REMARK  176  A    between atoms: _422  and  _423
REMARK  177  A    between atoms: _427  and  _428
REMARK  178  A    between atoms: _433  and  _435
REMARK  179  A    between atoms: _435  and  _436
REMARK  180  A    between atoms: _438  and  _440
REMARK  181  A    between atoms: _440  and  _441
REMARK  182  A    between atoms: _440  and  _443
REMARK  183  A    between atoms: _443  and  _444
REMARK  184  A    between atoms: _444  and  _445
REMARK  185  A    between atoms: _445  and  _446
REMARK  186  A    between atoms: _455  and  _457
REMARK  187  A    between atoms: _457  and  _458
REMARK  188  A    between atoms: _457  and  _460
REMARK  189  A    between atoms: _460  and  _461
REMARK  190  A    between atoms: _466  and  _468
REMARK  191  A    between atoms: _468  and  _469
REMARK  192  A    between atoms: _468  and  _471
REMARK  193  A    between atoms: _471  and  _472
REMARK  194  A    between atoms: _478  and  _480
REMARK  195  A    between atoms: _480  and  _481
REMARK  196  A    between atoms: _480  and  _483
REMARK  197  A    between atoms: _483  and  _484
REMARK  198  A    between atoms: _487  and  _489
REMARK  199  A    between atoms: _489  and  _490
REMARK  200  A    between atoms: _489  and  _492
REMARK  201  A    between atoms: _492  and  _493
REMARK  202  A    between atoms: _499  and  _501
REMARK  203  A    between atoms: _501  and  _502
REMARK  204  A    between atoms: _504  and  _506
REMARK  205  A    between atoms: _506  and  _507
REMARK  206  A    between atoms: _509  and  _511
REMARK  207  A    between atoms: _511  and  _512
REMARK  208  A    between atoms: _511  and  _514
REMARK  209  A    between atoms: _514  and  _515
REMARK  210  A    between atoms: _520  and  _521
REMARK  211  A    between atoms: _523  and  _525
REMARK  212  A    between atoms: _525  and  _526
REMARK  213  A    between atoms: _525  and  _528
REMARK  214  A    between atoms: _528  and  _529
REMARK  215  A    between atoms: _534  and  _535
REMARK  216  A    between atoms: _537  and  _539
REMARK  217  A    between atoms: _539  and  _540
REMARK  218  A    between atoms: _539  and  _542
REMARK  219  A    between atoms: _542  and  _543
REMARK  220  A    between atoms: _546  and  _548
REMARK  221  A    between atoms: _548  and  _549
REMARK  222  A    between atoms: _548  and  _551
REMARK  223  A    between atoms: _551  and  _552
REMARK  224  A    between atoms: _555  and  _557
REMARK  225  A    between atoms: _557  and  _558
REMARK  226  A    between atoms: _557  and  _560
REMARK  227  A    between atoms: _560  and  _561
REMARK  228  A    between atoms: _561  and  _562
REMARK  229  A    between atoms: _562  and  _563
REMARK  230  A    between atoms: _563  and  _564
REMARK  231  A    between atoms: _568  and  _570
REMARK  232  A    between atoms: _570  and  _571
REMARK  233  A    between atoms: _570  and  _573
REMARK  234  A    between atoms: _573  and  _574
REMARK  235  A    between atoms: _577  and  _579
REMARK  236  A    between atoms: _579  and  _580
REMARK  237  A    between atoms: _579  and  _582
REMARK  238  A    between atoms: _582  and  _583
REMARK  239  A    between atoms: _586  and  _588
REMARK  240  A    between atoms: _588  and  _589
REMARK  241  A    between atoms: _588  and  _591
REMARK  242  A    between atoms: _591  and  _592
REMARK  243  A    between atoms: _597  and  _598
REMARK  244  A    between atoms: _600  and  _602
REMARK  245  A    between atoms: _602  and  _603
REMARK  246  A    between atoms: _602  and  _605
REMARK  247  A    between atoms: _605  and  _606
REMARK                            x       y       z     vdW  Elec       q    Type
REMARK                         _______ _______ _______ _____ _____    ______ ____
ROOT
ATOM      1  O   HOH     1      13.656 -18.581  -3.981  0.00  0.00    +0.000 OA
ENDROOT
TORSDOF 0
REMARK  Name = ../refined-set-2016/4elg/4elg_pocket.pdb
REMARK  247 active torsions:
REMARK  status: ('A' for Active; 'I' for Inactive)
REMARK    1  A    between atoms: _1  and  _3
REMARK    2  A    between atoms: _3  and  _4
REMARK    3  A    between atoms: _3  and  _6
REMARK    4  A    between atoms: _6  and  _7
REMARK    5  A    between atoms: _13  and  _15
REMARK    6  A    between atoms: _15  and  _16
REMARK    7  A    between atoms: _15  and  _18
REMARK    8  A    between atoms: _18  and  _19
REMARK    9  A    between atoms: _19  and  _20
REMARK   10  A    between atoms: _22  and  _24
REMARK   11  A    between atoms: _24  and  _25
REMARK   12  A    between atoms: _24  and  _27
REMARK   13  A    between atoms: _30  and  _32
REMARK   14  A    between atoms: _32  and  _33
REMARK   15  A    between atoms: _36  and  _38
REMARK   16  A    between atoms: _38  and  _39
REMARK   17  A    between atoms: _38  and  _41
REMARK   18  A    between atoms: _41  and  _42
REMARK   19  A    between atoms: _42  and  _43
REMARK   20  A    between atoms: _45  and  _47
REMARK   21  A    between atoms: _47  and  _48
REMARK   22  A    between atoms: _47  and  _50
REMARK   23  A    between atoms: _50  and  _51
REMARK   24  A    between atoms: _54  and  _56
REMARK   25  A    between atoms: _56  and  _57
REMARK   26  A    between atoms: _59  and  _61
REMARK   27  A    between atoms: _61  and  _62
REMARK   28  A    between atoms: _61  and  _64
REMARK   29  A    between atoms: _64  and  _65
REMARK   30  A    between atoms: _65  and  _66
REMARK   31  A    between atoms: _66  and  _67
REMARK   32  A    between atoms: _67  and  _68
REMARK   33  A    between atoms: _72  and  _74
REMARK   34  A    between atoms: _74  and  _75
REMARK   35  A    between atoms: _74  and  _77
REMARK   36  A    between atoms: _77  and  _78
REMARK   37  A    between atoms: _81  and  _83
REMARK   38  A    between atoms: _83  and  _84
REMARK   39  A    between atoms: _83  and  _86
REMARK   40  A    between atoms: _86  and  _87
REMARK   41  A    between atoms: _92  and  _94
REMARK   42  A    between atoms: _94  and  _95
REMARK   43  A    between atoms: _94  and  _97
REMARK   44  A    between atoms: _97  and  _98
REMARK   45  A    between atoms: _103  and  _105
REMARK   46  A    between atoms: _105  and  _106
REMARK   47  A    between atoms: _105  and  _108
REMARK   48  A    between atoms: _108  and  _109
REMARK   49  A    between atoms: _113  and  _114
REMARK   50  A    between atoms: _119  and  _121
REMARK   51  A    between atoms: _121  and  _122
REMARK   52  A    between atoms: _121  and  _124
REMARK   53  A    between atoms: _124  and  _125
REMARK   54  A    between atoms: _135  and  _137
REMARK   55  A    between atoms: _137  and  _138
REMARK   56  A    between atoms: _137  and  _140
REMARK   57  A    between atoms: _140  and  _141
REMARK   58  A    between atoms: _141  and  _142
REMARK   59  A    between atoms: _142  and  _143
REMARK   60  A    between atoms: _152  and  _154
REMARK   61  A    between atoms: _154  and  _155
REMARK   62  A    between atoms: _154  and  _157
REMARK   63  A    between atoms: _157  and  _158
REMARK   64  A    between atoms: _162  and  _163
REMARK   65  A    between atoms: _168  and  _170
REMARK   66  A    between atoms: _170  and  _171
REMARK   67  A    between atoms: _170  and  _173
REMARK   68  A    between atoms: _173  and  _174
REMARK   69  A    between atoms: _176  and  _178
REMARK   70  A    between atoms: _178  and  _179
REMARK   71  A    between atoms: _178  and  _181
REMARK   72  A    between atoms: _181  and  _182
REMARK   73  A    between atoms: _182  and  _183
REMARK   74  A    between atoms: _186  and  _188
REMARK   75  A    between atoms: _188  and  _189
REMARK   76  A    between atoms: _188  and  _191
REMARK   77  A    between atoms: _191  and  _192
REMARK   78  A    between atoms: _195  and  _197
REMARK   79  A    between atoms: _197  and  _198
REMARK   80  A    between atoms: _197  and  _200
REMARK   81  A    between atoms: _200  and  _201
REMARK   82  A    between atoms: _201  and  _202
REMARK   83  A    between atoms: _207  and  _209
REMARK   84  A    between atoms: _209  and  _210
REMARK   85  A    between atoms: _209  and  _212
REMARK   86  A    between atoms: _212  and  _213
REMARK   87  A    between atoms: _218  and  _219
REMARK   88  A    between atoms: _221  and  _223
REMARK   89  A    between atoms: _223  and  _224
REMARK   90  A    between atoms: _223  and  _226
REMARK   91  A    between atoms: _229  and  _231
REMARK   92  A    between atoms: _231  and  _232
REMARK   93  A    between atoms: _231  and  _234
REMARK   94  A    between atoms: _234  and  _235
REMARK   95  A    between atoms: _235  and  _236
REMARK   96  A    between atoms: _236  and  _237
REMARK   97  A    between atoms: _237  and  _238
REMARK   98  A    between atoms: _242  and  _244
REMARK   99  A    between atoms: _244  and  _245
REMARK  100  A    between atoms: _244  and  _247
REMARK  101  A    between atoms: _247  and  _248
REMARK  102  A    between atoms: _248  and  _249
REMARK  103  A    between atoms: _249  and  _250
REMARK  104  A    between atoms: _250  and  _251
REMARK  105  A    between atoms: _255  and  _257
REMARK  106  A    between atoms: _257  and  _258
REMARK  107  A    between atoms: _257  and  _260
REMARK  108  A    between atoms: _260  and  _261
REMARK  109  A    between atoms: _264  and  _266
REMARK  110  A    between atoms: _266  and  _267
REMARK  111  A    between atoms: _266  and  _269
REMARK  112  A    between atoms: _269  and  _270
REMARK  113  A    between atoms: _273  and  _275
REMARK  114  A    between atoms: _275  and  _276
REMARK  115  A    between atoms: _275  and  _278
REMARK  116  A    between atoms: _278  and  _279
REMARK  117  A    between atoms: _279  and  _280
REMARK  118  A    between atoms: _282  and  _284
REMARK  119  A    between atoms: _284  and  _285
REMARK  120  A    between atoms: _287  and  _289
REMARK  121  A    between atoms: _289  and  _290
REMARK  122  A    between atoms: _289  and  _292
REMARK  123  A    between atoms: _292  and  _293
REMARK  124  A    between atoms: _298  and  _300
REMARK  125  A    between atoms: _300  and  _301
REMARK  126  A    between atoms: _300  and  _303
REMARK  127  A    between atoms: _303  and  _304
REMARK  128  A    between atoms: _307  and  _309
REMARK  129  A    between atoms: _309  and  _310
REMARK  130  A    between atoms: _309  and  _312
REMARK  131  A    between atoms: _312  and  _313
REMARK  132  A    between atoms: _316  and  _318
REMARK  133  A    between atoms: _318  and  _319
REMARK  134  A    between atoms: _318  and  _321
REMARK  135  A    between atoms: _321  and  _322
REMARK  136  A    between atoms: _322  and  _323
REMARK  137  A    between atoms: _325  and  _327
REMARK  138  A    between atoms: _327  and  _328
REMARK  139  A    between atoms: _327  and  _330
REMARK  140  A    between atoms: _330  and  _331
REMARK  141  A    between atoms: _331  and  _332
REMARK  142  A    between atoms: _332  and  _333
REMARK  143  A    between atoms: _333  and  _334
REMARK  144  A    between atoms: _338  and  _340
REMARK  145  A    between atoms: _340  and  _341
REMARK  146  A    between atoms: _340  and  _343
REMARK  147  A    between atoms: _343  and  _344
REMARK  148  A    between atoms: _349  and  _351
REMARK  149  A    between atoms: _351  and  _352
REMARK  150  A    between atoms: _351  and  _354
REMARK  151  A    between atoms: _354  and  _355
REMARK  152  A    between atoms: _360  and  _361
REMARK  153  A    between atoms: _363  and  _365
REMARK  154  A    between atoms: _365  and  _366
REMARK  155  A    between atoms: _365  and  _368
REMARK  156  A    between atoms: _368  and  _369
REMARK  157  A    between atoms: _369  and  _370
REMARK  158  A    between atoms: _373  and  _375
REMARK  159  A    between atoms: _375  and  _376
REMARK  160  A    between atoms: _379  and  _381
REMARK  161  A    between atoms: _381  and  _382
REMARK  162  A    between atoms: _381  and  _384
REMARK  163  A    between atoms: _384  and  _385
REMARK  164  A    between atoms: _388  and  _390
REMARK  165  A    between atoms: _390  and  _391
REMARK  166  A    between atoms: _393  and  _395
REMARK  167  A    between atoms: _395  and  _396
REMARK  168  A    between atoms: _395  and  _398
REMARK  169  A    between atoms: _398  and  _399
REMARK  170  A    between atoms: _399  and  _400
REMARK  171  A    between atoms: _400  and  _401
REMARK  172  A    between atoms: _411  and  _412
REMARK  173  A    between atoms: _417  and  _419
REMARK  174  A    between atoms: _419  and  _420
REMARK  175  A    between atoms: _419  and  _422
REMARK  176  A    between atoms: _422  and  _423
REMARK  177  A    between atoms: _427  and  _428
REMARK  178  A    between atoms: _433  and  _435
REMARK  179  A    between atoms: _435  and  _436
REMARK  180  A    between atoms: _438  and  _440
REMARK  181  A    between atoms: _440  and  _441
REMARK  182  A    between atoms: _440  and  _443
REMARK  183  A    between atoms: _443  and  _444
REMARK  184  A    between atoms: _444  and  _445
REMARK  185  A    between atoms: _445  and  _446
REMARK  186  A    between atoms: _455  and  _457
REMARK  187  A    between atoms: _457  and  _458
REMARK  188  A    between atoms: _457  and  _460
REMARK  189  A    between atoms: _460  and  _461
REMARK  190  A    between atoms: _466  and  _468
REMARK  191  A    between atoms: _468  and  _469
REMARK  192  A    between atoms: _468  and  _471
REMARK  193  A    between atoms: _471  and  _472
REMARK  194  A    between atoms: _478  and  _480
REMARK  195  A    between atoms: _480  and  _481
REMARK  196  A    between atoms: _480  and  _483
REMARK  197  A    between atoms: _483  and  _484
REMARK  198  A    between atoms: _487  and  _489
REMARK  199  A    between atoms: _489  and  _490
REMARK  200  A    between atoms: _489  and  _492
REMARK  201  A    between atoms: _492  and  _493
REMARK  202  A    between atoms: _499  and  _501
REMARK  203  A    between atoms: _501  and  _502
REMARK  204  A    between atoms: _504  and  _506
REMARK  205  A    between atoms: _506  and  _507
REMARK  206  A    between atoms: _509  and  _511
REMARK  207  A    between atoms: _511  and  _512
REMARK  208  A    between atoms: _511  and  _514
REMARK  209  A    between atoms: _514  and  _515
REMARK  210  A    between atoms: _520  and  _521
REMARK  211  A    between atoms: _523  and  _525
REMARK  212  A    between atoms: _525  and  _526
REMARK  213  A    between atoms: _525  and  _528
REMARK  214  A    between atoms: _528  and  _529
REMARK  215  A    between atoms: _534  and  _535
REMARK  216  A    between atoms: _537  and  _539
REMARK  217  A    between atoms: _539  and  _540
REMARK  218  A    between atoms: _539  and  _542
REMARK  219  A    between atoms: _542  and  _543
REMARK  220  A    between atoms: _546  and  _548
REMARK  221  A    between atoms: _548  and  _549
REMARK  222  A    between atoms: _548  and  _551
REMARK  223  A    between atoms: _551  and  _552
REMARK  224  A    between atoms: _555  and  _557
REMARK  225  A    between atoms: _557  and  _558
REMARK  226  A    between atoms: _557  and  _560
REMARK  227  A    between atoms: _560  and  _561
REMARK  228  A    between atoms: _561  and  _562
REMARK  229  A    between atoms: _562  and  _563
REMARK  230  A    between atoms: _563  and  _564
REMARK  231  A    between atoms: _568  and  _570
REMARK  232  A    between atoms: _570  and  _571
REMARK  233  A    between atoms: _570  and  _573
REMARK  234  A    between atoms: _573  and  _574
REMARK  235  A    between atoms: _577  and  _579
REMARK  236  A    between atoms: _579  and  _580
REMARK  237  A    between atoms: _579  and  _582
REMARK  238  A    between atoms: _582  and  _583
REMARK  239  A    between atoms: _586  and  _588
REMARK  240  A    between atoms: _588  and  _589
REMARK  241  A    between atoms: _588  and  _591
REMARK  242  A    between atoms: _591  and  _592
REMARK  243  A    between atoms: _597  and  _598
REMARK  244  A    between atoms: _600  and  _602
REMARK  245  A    between atoms: _602  and  _603
REMARK  246  A    between atoms: _602  and  _605
REMARK  247  A    between atoms: _605  and  _606
REMARK                            x       y       z     vdW  Elec       q    Type
REMARK                         _______ _______ _______ _____ _____    ______ ____
ROOT
ATOM      1  O   HOH     1      23.308 -30.123   4.203  0.00  0.00    +0.000 OA
ENDROOT
TORSDOF 0
REMARK  Name = ../refined-set-2016/4elg/4elg_pocket.pdb
REMARK  247 active torsions:
REMARK  status: ('A' for Active; 'I' for Inactive)
REMARK    1  A    between atoms: _1  and  _3
REMARK    2  A    between atoms: _3  and  _4
REMARK    3  A    between atoms: _3  and  _6
REMARK    4  A    between atoms: _6  and  _7
REMARK    5  A    between atoms: _13  and  _15
REMARK    6  A    between atoms: _15  and  _16
REMARK    7  A    between atoms: _15  and  _18
REMARK    8  A    between atoms: _18  and  _19
REMARK    9  A    between atoms: _19  and  _20
REMARK   10  A    between atoms: _22  and  _24
REMARK   11  A    between atoms: _24  and  _25
REMARK   12  A    between atoms: _24  and  _27
REMARK   13  A    between atoms: _30  and  _32
REMARK   14  A    between atoms: _32  and  _33
REMARK   15  A    between atoms: _36  and  _38
REMARK   16  A    between atoms: _38  and  _39
REMARK   17  A    between atoms: _38  and  _41
REMARK   18  A    between atoms: _41  and  _42
REMARK   19  A    between atoms: _42  and  _43
REMARK   20  A    between atoms: _45  and  _47
REMARK   21  A    between atoms: _47  and  _48
REMARK   22  A    between atoms: _47  and  _50
REMARK   23  A    between atoms: _50  and  _51
REMARK   24  A    between atoms: _54  and  _56
REMARK   25  A    between atoms: _56  and  _57
REMARK   26  A    between atoms: _59  and  _61
REMARK   27  A    between atoms: _61  and  _62
REMARK   28  A    between atoms: _61  and  _64
REMARK   29  A    between atoms: _64  and  _65
REMARK   30  A    between atoms: _65  and  _66
REMARK   31  A    between atoms: _66  and  _67
REMARK   32  A    between atoms: _67  and  _68
REMARK   33  A    between atoms: _72  and  _74
REMARK   34  A    between atoms: _74  and  _75
REMARK   35  A    between atoms: _74  and  _77
REMARK   36  A    between atoms: _77  and  _78
REMARK   37  A    between atoms: _81  and  _83
REMARK   38  A    between atoms: _83  and  _84
REMARK   39  A    between atoms: _83  and  _86
REMARK   40  A    between atoms: _86  and  _87
REMARK   41  A    between atoms: _92  and  _94
REMARK   42  A    between atoms: _94  and  _95
REMARK   43  A    between atoms: _94  and  _97
REMARK   44  A    between atoms: _97  and  _98
REMARK   45  A    between atoms: _103  and  _105
REMARK   46  A    between atoms: _105  and  _106
REMARK   47  A    between atoms: _105  and  _108
REMARK   48  A    between atoms: _108  and  _109
REMARK   49  A    between atoms: _113  and  _114
REMARK   50  A    between atoms: _119  and  _121
REMARK   51  A    between atoms: _121  and  _122
REMARK   52  A    between atoms: _121  and  _124
REMARK   53  A    between atoms: _124  and  _125
REMARK   54  A    between atoms: _135  and  _137
REMARK   55  A    between atoms: _137  and  _138
REMARK   56  A    between atoms: _137  and  _140
REMARK   57  A    between atoms: _140  and  _141
REMARK   58  A    between atoms: _141  and  _142
REMARK   59  A    between atoms: _142  and  _143
REMARK   60  A    between atoms: _152  and  _154
REMARK   61  A    between atoms: _154  and  _155
REMARK   62  A    between atoms: _154  and  _157
REMARK   63  A    between atoms: _157  and  _158
REMARK   64  A    between atoms: _162  and  _163
REMARK   65  A    between atoms: _168  and  _170
REMARK   66  A    between atoms: _170  and  _171
REMARK   67  A    between atoms: _170  and  _173
REMARK   68  A    between atoms: _173  and  _174
REMARK   69  A    between atoms: _176  and  _178
REMARK   70  A    between atoms: _178  and  _179
REMARK   71  A    between atoms: _178  and  _181
REMARK   72  A    between atoms: _181  and  _182
REMARK   73  A    between atoms: _182  and  _183
REMARK   74  A    between atoms: _186  and  _188
REMARK   75  A    between atoms: _188  and  _189
REMARK   76  A    between atoms: _188  and  _191
REMARK   77  A    between atoms: _191  and  _192
REMARK   78  A    between atoms: _195  and  _197
REMARK   79  A    between atoms: _197  and  _198
REMARK   80  A    between atoms: _197  and  _200
REMARK   81  A    between atoms: _200  and  _201
REMARK   82  A    between atoms: _201  and  _202
REMARK   83  A    between atoms: _207  and  _209
REMARK   84  A    between atoms: _209  and  _210
REMARK   85  A    between atoms: _209  and  _212
REMARK   86  A    between atoms: _212  and  _213
REMARK   87  A    between atoms: _218  and  _219
REMARK   88  A    between atoms: _221  and  _223
REMARK   89  A    between atoms: _223  and  _224
REMARK   90  A    between atoms: _223  and  _226
REMARK   91  A    between atoms: _229  and  _231
REMARK   92  A    between atoms: _231  and  _232
REMARK   93  A    between atoms: _231  and  _234
REMARK   94  A    between atoms: _234  and  _235
REMARK   95  A    between atoms: _235  and  _236
REMARK   96  A    between atoms: _236  and  _237
REMARK   97  A    between atoms: _237  and  _238
REMARK   98  A    between atoms: _242  and  _244
REMARK   99  A    between atoms: _244  and  _245
REMARK  100  A    between atoms: _244  and  _247
REMARK  101  A    between atoms: _247  and  _248
REMARK  102  A    between atoms: _248  and  _249
REMARK  103  A    between atoms: _249  and  _250
REMARK  104  A    between atoms: _250  and  _251
REMARK  105  A    between atoms: _255  and  _257
REMARK  106  A    between atoms: _257  and  _258
REMARK  107  A    between atoms: _257  and  _260
REMARK  108  A    between atoms: _260  and  _261
REMARK  109  A    between atoms: _264  and  _266
REMARK  110  A    between atoms: _266  and  _267
REMARK  111  A    between atoms: _266  and  _269
REMARK  112  A    between atoms: _269  and  _270
REMARK  113  A    between atoms: _273  and  _275
REMARK  114  A    between atoms: _275  and  _276
REMARK  115  A    between atoms: _275  and  _278
REMARK  116  A    between atoms: _278  and  _279
REMARK  117  A    between atoms: _279  and  _280
REMARK  118  A    between atoms: _282  and  _284
REMARK  119  A    between atoms: _284  and  _285
REMARK  120  A    between atoms: _287  and  _289
REMARK  121  A    between atoms: _289  and  _290
REMARK  122  A    between atoms: _289  and  _292
REMARK  123  A    between atoms: _292  and  _293
REMARK  124  A    between atoms: _298  and  _300
REMARK  125  A    between atoms: _300  and  _301
REMARK  126  A    between atoms: _300  and  _303
REMARK  127  A    between atoms: _303  and  _304
REMARK  128  A    between atoms: _307  and  _309
REMARK  129  A    between atoms: _309  and  _310
REMARK  130  A    between atoms: _309  and  _312
REMARK  131  A    between atoms: _312  and  _313
REMARK  132  A    between atoms: _316  and  _318
REMARK  133  A    between atoms: _318  and  _319
REMARK  134  A    between atoms: _318  and  _321
REMARK  135  A    between atoms: _321  and  _322
REMARK  136  A    between atoms: _322  and  _323
REMARK  137  A    between atoms: _325  and  _327
REMARK  138  A    between atoms: _327  and  _328
REMARK  139  A    between atoms: _327  and  _330
REMARK  140  A    between atoms: _330  and  _331
REMARK  141  A    between atoms: _331  and  _332
REMARK  142  A    between atoms: _332  and  _333
REMARK  143  A    between atoms: _333  and  _334
REMARK  144  A    between atoms: _338  and  _340
REMARK  145  A    between atoms: _340  and  _341
REMARK  146  A    between atoms: _340  and  _343
REMARK  147  A    between atoms: _343  and  _344
REMARK  148  A    between atoms: _349  and  _351
REMARK  149  A    between atoms: _351  and  _352
REMARK  150  A    between atoms: _351  and  _354
REMARK  151  A    between atoms: _354  and  _355
REMARK  152  A    between atoms: _360  and  _361
REMARK  153  A    between atoms: _363  and  _365
REMARK  154  A    between atoms: _365  and  _366
REMARK  155  A    between atoms: _365  and  _368
REMARK  156  A    between atoms: _368  and  _369
REMARK  157  A    between atoms: _369  and  _370
REMARK  158  A    between atoms: _373  and  _375
REMARK  159  A    between atoms: _375  and  _376
REMARK  160  A    between atoms: _379  and  _381
REMARK  161  A    between atoms: _381  and  _382
REMARK  162  A    between atoms: _381  and  _384
REMARK  163  A    between atoms: _384  and  _385
REMARK  164  A    between atoms: _388  and  _390
REMARK  165  A    between atoms: _390  and  _391
REMARK  166  A    between atoms: _393  and  _395
REMARK  167  A    between atoms: _395  and  _396
REMARK  168  A    between atoms: _395  and  _398
REMARK  169  A    between atoms: _398  and  _399
REMARK  170  A    between atoms: _399  and  _400
REMARK  171  A    between atoms: _400  and  _401
REMARK  172  A    between atoms: _411  and  _412
REMARK  173  A    between atoms: _417  and  _419
REMARK  174  A    between atoms: _419  and  _420
REMARK  175  A    between atoms: _419  and  _422
REMARK  176  A    between atoms: _422  and  _423
REMARK  177  A    between atoms: _427  and  _428
REMARK  178  A    between atoms: _433  and  _435
REMARK  179  A    between atoms: _435  and  _436
REMARK  180  A    between atoms: _438  and  _440
REMARK  181  A    between atoms: _440  and  _441
REMARK  182  A    between atoms: _440  and  _443
REMARK  183  A    between atoms: _443  and  _444
REMARK  184  A    between atoms: _444  and  _445
REMARK  185  A    between atoms: _445  and  _446
REMARK  186  A    between atoms: _455  and  _457
REMARK  187  A    between atoms: _457  and  _458
REMARK  188  A    between atoms: _457  and  _460
REMARK  189  A    between atoms: _460  and  _461
REMARK  190  A    between atoms: _466  and  _468
REMARK  191  A    between atoms: _468  and  _469
REMARK  192  A    between atoms: _468  and  _471
REMARK  193  A    between atoms: _471  and  _472
REMARK  194  A    between atoms: _478  and  _480
REMARK  195  A    between atoms: _480  and  _481
REMARK  196  A    between atoms: _480  and  _483
REMARK  197  A    between atoms: _483  and  _484
REMARK  198  A    between atoms: _487  and  _489
REMARK  199  A    between atoms: _489  and  _490
REMARK  200  A    between atoms: _489  and  _492
REMARK  201  A    between atoms: _492  and  _493
REMARK  202  A    between atoms: _499  and  _501
REMARK  203  A    between atoms: _501  and  _502
REMARK  204  A    between atoms: _504  and  _506
REMARK  205  A    between atoms: _506  and  _507
REMARK  206  A    between atoms: _509  and  _511
REMARK  207  A    between atoms: _511  and  _512
REMARK  208  A    between atoms: _511  and  _514
REMARK  209  A    between atoms: _514  and  _515
REMARK  210  A    between atoms: _520  and  _521
REMARK  211  A    between atoms: _523  and  _525
REMARK  212  A    between atoms: _525  and  _526
REMARK  213  A    between atoms: _525  and  _528
REMARK  214  A    between atoms: _528  and  _529
REMARK  215  A    between atoms: _534  and  _535
REMARK  216  A    between atoms: _537  and  _539
REMARK  217  A    between atoms: _539  and  _540
REMARK  218  A    between atoms: _539  and  _542
REMARK  219  A    between atoms: _542  and  _543
REMARK  220  A    between atoms: _546  and  _548
REMARK  221  A    between atoms: _548  and  _549
REMARK  222  A    between atoms: _548  and  _551
REMARK  223  A    between atoms: _551  and  _552
REMARK  224  A    between atoms: _555  and  _557
REMARK  225  A    between atoms: _557  and  _558
REMARK  226  A    between atoms: _557  and  _560
REMARK  227  A    between atoms: _560  and  _561
REMARK  228  A    between atoms: _561  and  _562
REMARK  229  A    between atoms: _562  and  _563
REMARK  230  A    between atoms: _563  and  _564
REMARK  231  A    between atoms: _568  and  _570
REMARK  232  A    between atoms: _570  and  _571
REMARK  233  A    between atoms: _570  and  _573
REMARK  234  A    between atoms: _573  and  _574
REMARK  235  A    between atoms: _577  and  _579
REMARK  236  A    between atoms: _579  and  _580
REMARK  237  A    between atoms: _579  and  _582
REMARK  238  A    between atoms: _582  and  _583
REMARK  239  A    between atoms: _586  and  _588
REMARK  240  A    between atoms: _588  and  _589
REMARK  241  A    between atoms: _588  and  _591
REMARK  242  A    between atoms: _591  and  _592
REMARK  243  A    between atoms: _597  and  _598
REMARK  244  A    between atoms: _600  and  _602
REMARK  245  A    between atoms: _602  and  _603
REMARK  246  A    between atoms: _602  and  _605
REMARK  247  A    between atoms: _605  and  _606
REMARK                            x       y       z     vdW  Elec       q    Type
REMARK                         _______ _______ _______ _____ _____    ______ ____
ROOT
ATOM      1  O   HOH     1      24.059 -32.265   3.193  0.00  0.00    +0.000 OA
ENDROOT
TORSDOF 0
