REMARK  Name = ../refined-set-2016/1i9q/1i9q_pocket.pdb
REMARK  155 active torsions:
REMARK  status: ('A' for Active; 'I' for Inactive)
REMARK    1  A    between atoms: _1  and  _3
REMARK    2  A    between atoms: _3  and  _4
REMARK    3  A    between atoms: _3  and  _6
REMARK    4  A    between atoms: _6  and  _7
REMARK    5  A    between atoms: _17  and  _19
REMARK    6  A    between atoms: _19  and  _20
REMARK    7  A    between atoms: _19  and  _22
REMARK    8  A    between atoms: _22  and  _23
REMARK    9  A    between atoms: _28  and  _29
REMARK   10  A    between atoms: _31  and  _33
REMARK   11  A    between atoms: _33  and  _34
REMARK   12  A    between atoms: _33  and  _36
REMARK   13  A    between atoms: _36  and  _37
REMARK   14  A    between atoms: _40  and  _41
REMARK   15  A    between atoms: _46  and  _48
REMARK   16  A    between atoms: _48  and  _49
REMARK   17  A    between atoms: _48  and  _51
REMARK   18  A    between atoms: _51  and  _52
REMARK   19  A    between atoms: _57  and  _59
REMARK   20  A    between atoms: _59  and  _60
REMARK   21  A    between atoms: _59  and  _62
REMARK   22  A    between atoms: _62  and  _63
REMARK   23  A    between atoms: _68  and  _70
REMARK   24  A    between atoms: _70  and  _71
REMARK   25  A    between atoms: _74  and  _76
REMARK   26  A    between atoms: _76  and  _77
REMARK   27  A    between atoms: _76  and  _79
REMARK   28  A    between atoms: _79  and  _80
REMARK   29  A    between atoms: _85  and  _87
REMARK   30  A    between atoms: _87  and  _88
REMARK   31  A    between atoms: _87  and  _90
REMARK   32  A    between atoms: _90  and  _91
REMARK   33  A    between atoms: _94  and  _96
REMARK   34  A    between atoms: _96  and  _97
REMARK   35  A    between atoms: _96  and  _99
REMARK   36  A    between atoms: _99  and  _100
REMARK   37  A    between atoms: _100  and  _101
REMARK   38  A    between atoms: _106  and  _108
REMARK   39  A    between atoms: _108  and  _109
REMARK   40  A    between atoms: _108  and  _111
REMARK   41  A    between atoms: _111  and  _112
REMARK   42  A    between atoms: _118  and  _120
REMARK   43  A    between atoms: _131  and  _134
REMARK   44  A    between atoms: _134  and  _135
REMARK   45  A    between atoms: _143  and  _144
REMARK   46  A    between atoms: _152  and  _154
REMARK   47  A    between atoms: _154  and  _155
REMARK   48  A    between atoms: _154  and  _157
REMARK   49  A    between atoms: _157  and  _158
REMARK   50  A    between atoms: _158  and  _159
REMARK   51  A    between atoms: _162  and  _164
REMARK   52  A    between atoms: _164  and  _165
REMARK   53  A    between atoms: _164  and  _167
REMARK   54  A    between atoms: _167  and  _168
REMARK   55  A    between atoms: _173  and  _175
REMARK   56  A    between atoms: _175  and  _176
REMARK   57  A    between atoms: _175  and  _178
REMARK   58  A    between atoms: _178  and  _179
REMARK   59  A    between atoms: _179  and  _180
REMARK   60  A    between atoms: _183  and  _185
REMARK   61  A    between atoms: _185  and  _186
REMARK   62  A    between atoms: _185  and  _188
REMARK   63  A    between atoms: _188  and  _189
REMARK   64  A    between atoms: _192  and  _194
REMARK   65  A    between atoms: _194  and  _195
REMARK   66  A    between atoms: _194  and  _197
REMARK   67  A    between atoms: _197  and  _198
REMARK   68  A    between atoms: _199  and  ZN_433
REMARK   69  A    between atoms: _203  and  _205
REMARK   70  A    between atoms: _205  and  _206
REMARK   71  A    between atoms: _205  and  _208
REMARK   72  A    between atoms: _208  and  _209
REMARK   73  A    between atoms: _212  and  _214
REMARK   74  A    between atoms: _214  and  _215
REMARK   75  A    between atoms: _214  and  _217
REMARK   76  A    between atoms: _220  and  _222
REMARK   77  A    between atoms: _222  and  _223
REMARK   78  A    between atoms: _222  and  _225
REMARK   79  A    between atoms: _225  and  _226
REMARK   80  A    between atoms: _231  and  _233
REMARK   81  A    between atoms: _233  and  _234
REMARK   82  A    between atoms: _233  and  _236
REMARK   83  A    between atoms: _239  and  _241
REMARK   84  A    between atoms: _241  and  _242
REMARK   85  A    between atoms: _244  and  _246
REMARK   86  A    between atoms: _246  and  _247
REMARK   87  A    between atoms: _250  and  _252
REMARK   88  A    between atoms: _252  and  _253
REMARK   89  A    between atoms: _252  and  _255
REMARK   90  A    between atoms: _258  and  _260
REMARK   91  A    between atoms: _260  and  _261
REMARK   92  A    between atoms: _260  and  _263
REMARK   93  A    between atoms: _263  and  _264
REMARK   94  A    between atoms: _264  and  _265
REMARK   95  A    between atoms: _270  and  _272
REMARK   96  A    between atoms: _272  and  _273
REMARK   97  A    between atoms: _272  and  _275
REMARK   98  A    between atoms: _275  and  _276
REMARK   99  A    between atoms: _279  and  _281
REMARK  100  A    between atoms: _281  and  _282
REMARK  101  A    between atoms: _285  and  _287
REMARK  102  A    between atoms: _287  and  _288
REMARK  103  A    between atoms: _287  and  _290
REMARK  104  A    between atoms: _293  and  _295
REMARK  105  A    between atoms: _295  and  _296
REMARK  106  A    between atoms: _295  and  _298
REMARK  107  A    between atoms: _298  and  _299
REMARK  108  A    between atoms: _302  and  _304
REMARK  109  A    between atoms: _304  and  _305
REMARK  110  A    between atoms: _307  and  _309
REMARK  111  A    between atoms: _309  and  _310
REMARK  112  A    between atoms: _309  and  _312
REMARK  113  A    between atoms: _312  and  _313
REMARK  114  A    between atoms: _315  and  _317
REMARK  115  A    between atoms: _317  and  _318
REMARK  116  A    between atoms: _317  and  _320
REMARK  117  A    between atoms: _320  and  _321
REMARK  118  A    between atoms: _324  and  _326
REMARK  119  A    between atoms: _326  and  _327
REMARK  120  A    between atoms: _326  and  _329
REMARK  121  A    between atoms: _329  and  _330
REMARK  122  A    between atoms: _333  and  _335
REMARK  123  A    between atoms: _335  and  _336
REMARK  124  A    between atoms: _335  and  _338
REMARK  125  A    between atoms: _338  and  _339
REMARK  126  A    between atoms: _343  and  _344
REMARK  127  A    between atoms: _350  and  _351
REMARK  128  A    between atoms: _356  and  _358
REMARK  129  A    between atoms: _358  and  _359
REMARK  130  A    between atoms: _358  and  _361
REMARK  131  A    between atoms: _361  and  _362
REMARK  132  A    between atoms: _365  and  _367
REMARK  133  A    between atoms: _367  and  _368
REMARK  134  A    between atoms: _367  and  _370
REMARK  135  A    between atoms: _370  and  _371
REMARK  136  A    between atoms: _374  and  _376
REMARK  137  A    between atoms: _376  and  _377
REMARK  138  A    between atoms: _376  and  _379
REMARK  139  A    between atoms: _381  and  _383
REMARK  140  A    between atoms: _383  and  _384
REMARK  141  A    between atoms: _383  and  _386
REMARK  142  A    between atoms: _389  and  _391
REMARK  143  A    between atoms: _391  and  _392
REMARK  144  A    between atoms: _391  and  _394
REMARK  145  A    between atoms: _394  and  _395
REMARK  146  A    between atoms: _405  and  _407
REMARK  147  A    between atoms: _407  and  _408
REMARK  148  A    between atoms: _407  and  _410
REMARK  149  A    between atoms: _410  and  _411
REMARK  150  A    between atoms: _416  and  _418
REMARK  151  A    between atoms: _418  and  _419
REMARK  152  A    between atoms: _418  and  _421
REMARK  153  A    between atoms: _421  and  _422
REMARK  154  A    between atoms: _422  and  _423
REMARK  155  A    between atoms: _423  and  _424
REMARK                            x       y       z     vdW  Elec       q    Type
REMARK                         _______ _______ _______ _____ _____    ______ ____
ROOT
ATOM      1  CG  TRP A   1       5.513   0.191  12.194  0.00  0.00    -0.002 A 
ATOM      2  CD2 TRP A   1       4.146  -0.245  12.087  0.00  0.00    +0.013 A 
ATOM      3  CE3 TRP A   1       3.502  -1.480  12.256  0.00  0.00    +0.001 A 
ATOM      4  CZ3 TRP A   1       2.132  -1.550  12.069  0.00  0.00    +0.000 A 
ATOM      5  CH2 TRP A   1       1.389  -0.408  11.715  0.00  0.00    +0.001 A 
ATOM      6  CZ2 TRP A   1       1.991   0.814  11.542  0.00  0.00    +0.017 A 
ATOM      7  CE2 TRP A   1       3.374   0.885  11.731  0.00  0.00    +0.056 A 
ATOM      8  NE1 TRP A   1       4.228   1.956  11.636  0.00  0.00    -0.352 N 
ATOM      9  HE1 TRP A   1       3.951   2.929  11.393  0.00  0.00    +0.166 HD
ATOM     10  CD1 TRP A   1       5.508   1.537  11.913  0.00  0.00    +0.068 A 
ENDROOT
BRANCH   1  11
ATOM     11  CB  TRP A   1       6.709  -0.667  12.535  0.00  0.00    +0.053 C 
BRANCH  11  12
ATOM     12  CA  TRP A   1       7.422  -1.277  11.322  0.00  0.00    +0.137 C 
BRANCH  12  13
ATOM     13  N   TRP A   1       8.059  -0.226  10.537  0.00  0.00    -0.239 NA
ATOM     14  H   TRP A   1       7.839   0.769  10.744  0.00  0.00    +0.142 HD
ENDBRANCH  12  13
BRANCH  12  15
ATOM     15  C   TRP A   1       6.452  -2.140  10.523  0.00  0.00    +0.224 C 
ATOM     16  O   TRP A   1       5.910  -1.716   9.492  0.00  0.00    -0.287 OA
ENDBRANCH  12  15
ENDBRANCH  11  12
ENDBRANCH   1  11
TORSDOF 4
REMARK  Name = ../refined-set-2016/1i9q/1i9q_pocket.pdb
REMARK  155 active torsions:
REMARK  status: ('A' for Active; 'I' for Inactive)
REMARK    1  A    between atoms: _1  and  _3
REMARK    2  A    between atoms: _3  and  _4
REMARK    3  A    between atoms: _3  and  _6
REMARK    4  A    between atoms: _6  and  _7
REMARK    5  A    between atoms: _17  and  _19
REMARK    6  A    between atoms: _19  and  _20
REMARK    7  A    between atoms: _19  and  _22
REMARK    8  A    between atoms: _22  and  _23
REMARK    9  A    between atoms: _28  and  _29
REMARK   10  A    between atoms: _31  and  _33
REMARK   11  A    between atoms: _33  and  _34
REMARK   12  A    between atoms: _33  and  _36
REMARK   13  A    between atoms: _36  and  _37
REMARK   14  A    between atoms: _40  and  _41
REMARK   15  A    between atoms: _46  and  _48
REMARK   16  A    between atoms: _48  and  _49
REMARK   17  A    between atoms: _48  and  _51
REMARK   18  A    between atoms: _51  and  _52
REMARK   19  A    between atoms: _57  and  _59
REMARK   20  A    between atoms: _59  and  _60
REMARK   21  A    between atoms: _59  and  _62
REMARK   22  A    between atoms: _62  and  _63
REMARK   23  A    between atoms: _68  and  _70
REMARK   24  A    between atoms: _70  and  _71
REMARK   25  A    between atoms: _74  and  _76
REMARK   26  A    between atoms: _76  and  _77
REMARK   27  A    between atoms: _76  and  _79
REMARK   28  A    between atoms: _79  and  _80
REMARK   29  A    between atoms: _85  and  _87
REMARK   30  A    between atoms: _87  and  _88
REMARK   31  A    between atoms: _87  and  _90
REMARK   32  A    between atoms: _90  and  _91
REMARK   33  A    between atoms: _94  and  _96
REMARK   34  A    between atoms: _96  and  _97
REMARK   35  A    between atoms: _96  and  _99
REMARK   36  A    between atoms: _99  and  _100
REMARK   37  A    between atoms: _100  and  _101
REMARK   38  A    between atoms: _106  and  _108
REMARK   39  A    between atoms: _108  and  _109
REMARK   40  A    between atoms: _108  and  _111
REMARK   41  A    between atoms: _111  and  _112
REMARK   42  A    between atoms: _118  and  _120
REMARK   43  A    between atoms: _131  and  _134
REMARK   44  A    between atoms: _134  and  _135
REMARK   45  A    between atoms: _143  and  _144
REMARK   46  A    between atoms: _152  and  _154
REMARK   47  A    between atoms: _154  and  _155
REMARK   48  A    between atoms: _154  and  _157
REMARK   49  A    between atoms: _157  and  _158
REMARK   50  A    between atoms: _158  and  _159
REMARK   51  A    between atoms: _162  and  _164
REMARK   52  A    between atoms: _164  and  _165
REMARK   53  A    between atoms: _164  and  _167
REMARK   54  A    between atoms: _167  and  _168
REMARK   55  A    between atoms: _173  and  _175
REMARK   56  A    between atoms: _175  and  _176
REMARK   57  A    between atoms: _175  and  _178
REMARK   58  A    between atoms: _178  and  _179
REMARK   59  A    between atoms: _179  and  _180
REMARK   60  A    between atoms: _183  and  _185
REMARK   61  A    between atoms: _185  and  _186
REMARK   62  A    between atoms: _185  and  _188
REMARK   63  A    between atoms: _188  and  _189
REMARK   64  A    between atoms: _192  and  _194
REMARK   65  A    between atoms: _194  and  _195
REMARK   66  A    between atoms: _194  and  _197
REMARK   67  A    between atoms: _197  and  _198
REMARK   68  A    between atoms: _199  and  ZN_433
REMARK   69  A    between atoms: _203  and  _205
REMARK   70  A    between atoms: _205  and  _206
REMARK   71  A    between atoms: _205  and  _208
REMARK   72  A    between atoms: _208  and  _209
REMARK   73  A    between atoms: _212  and  _214
REMARK   74  A    between atoms: _214  and  _215
REMARK   75  A    between atoms: _214  and  _217
REMARK   76  A    between atoms: _220  and  _222
REMARK   77  A    between atoms: _222  and  _223
REMARK   78  A    between atoms: _222  and  _225
REMARK   79  A    between atoms: _225  and  _226
REMARK   80  A    between atoms: _231  and  _233
REMARK   81  A    between atoms: _233  and  _234
REMARK   82  A    between atoms: _233  and  _236
REMARK   83  A    between atoms: _239  and  _241
REMARK   84  A    between atoms: _241  and  _242
REMARK   85  A    between atoms: _244  and  _246
REMARK   86  A    between atoms: _246  and  _247
REMARK   87  A    between atoms: _250  and  _252
REMARK   88  A    between atoms: _252  and  _253
REMARK   89  A    between atoms: _252  and  _255
REMARK   90  A    between atoms: _258  and  _260
REMARK   91  A    between atoms: _260  and  _261
REMARK   92  A    between atoms: _260  and  _263
REMARK   93  A    between atoms: _263  and  _264
REMARK   94  A    between atoms: _264  and  _265
REMARK   95  A    between atoms: _270  and  _272
REMARK   96  A    between atoms: _272  and  _273
REMARK   97  A    between atoms: _272  and  _275
REMARK   98  A    between atoms: _275  and  _276
REMARK   99  A    between atoms: _279  and  _281
REMARK  100  A    between atoms: _281  and  _282
REMARK  101  A    between atoms: _285  and  _287
REMARK  102  A    between atoms: _287  and  _288
REMARK  103  A    between atoms: _287  and  _290
REMARK  104  A    between atoms: _293  and  _295
REMARK  105  A    between atoms: _295  and  _296
REMARK  106  A    between atoms: _295  and  _298
REMARK  107  A    between atoms: _298  and  _299
REMARK  108  A    between atoms: _302  and  _304
REMARK  109  A    between atoms: _304  and  _305
REMARK  110  A    between atoms: _307  and  _309
REMARK  111  A    between atoms: _309  and  _310
REMARK  112  A    between atoms: _309  and  _312
REMARK  113  A    between atoms: _312  and  _313
REMARK  114  A    between atoms: _315  and  _317
REMARK  115  A    between atoms: _317  and  _318
REMARK  116  A    between atoms: _317  and  _320
REMARK  117  A    between atoms: _320  and  _321
REMARK  118  A    between atoms: _324  and  _326
REMARK  119  A    between atoms: _326  and  _327
REMARK  120  A    between atoms: _326  and  _329
REMARK  121  A    between atoms: _329  and  _330
REMARK  122  A    between atoms: _333  and  _335
REMARK  123  A    between atoms: _335  and  _336
REMARK  124  A    between atoms: _335  and  _338
REMARK  125  A    between atoms: _338  and  _339
REMARK  126  A    between atoms: _343  and  _344
REMARK  127  A    between atoms: _350  and  _351
REMARK  128  A    between atoms: _356  and  _358
REMARK  129  A    between atoms: _358  and  _359
REMARK  130  A    between atoms: _358  and  _361
REMARK  131  A    between atoms: _361  and  _362
REMARK  132  A    between atoms: _365  and  _367
REMARK  133  A    between atoms: _367  and  _368
REMARK  134  A    between atoms: _367  and  _370
REMARK  135  A    between atoms: _370  and  _371
REMARK  136  A    between atoms: _374  and  _376
REMARK  137  A    between atoms: _376  and  _377
REMARK  138  A    between atoms: _376  and  _379
REMARK  139  A    between atoms: _381  and  _383
REMARK  140  A    between atoms: _383  and  _384
REMARK  141  A    between atoms: _383  and  _386
REMARK  142  A    between atoms: _389  and  _391
REMARK  143  A    between atoms: _391  and  _392
REMARK  144  A    between atoms: _391  and  _394
REMARK  145  A    between atoms: _394  and  _395
REMARK  146  A    between atoms: _405  and  _407
REMARK  147  A    between atoms: _407  and  _408
REMARK  148  A    between atoms: _407  and  _410
REMARK  149  A    between atoms: _410  and  _411
REMARK  150  A    between atoms: _416  and  _418
REMARK  151  A    between atoms: _418  and  _419
REMARK  152  A    between atoms: _418  and  _421
REMARK  153  A    between atoms: _421  and  _422
REMARK  154  A    between atoms: _422  and  _423
REMARK  155  A    between atoms: _423  and  _424
REMARK                            x       y       z     vdW  Elec       q    Type
REMARK                         _______ _______ _______ _____ _____    ______ ____
ROOT
ATOM      1  CG  TYR A   1       1.831  -6.973  12.025  0.00  0.00    -0.020 A 
ATOM      2  CD2 TYR A   1       1.485  -6.905  13.372  0.00  0.00    -0.001 A 
ATOM      3  CE2 TYR A   1       0.655  -5.902  13.847  0.00  0.00    +0.036 A 
ATOM      4  CZ  TYR A   1       0.152  -4.959  12.966  0.00  0.00    +0.134 A 
ATOM      5  CE1 TYR A   1       0.476  -5.004  11.622  0.00  0.00    +0.036 A 
ATOM      6  CD1 TYR A   1       1.319  -6.013  11.158  0.00  0.00    -0.001 A 
ENDROOT
BRANCH   4   7
ATOM      7  OH  TYR A   1      -0.696  -3.991  13.444  0.00  0.00    -0.506 OA
ATOM      8  HH  TYR A   1      -0.814  -4.110  14.420  0.00  0.00    +0.292 HD
ENDBRANCH   4   7
BRANCH   1   9
ATOM      9  CB  TYR A   1       2.763  -8.044  11.528  0.00  0.00    +0.051 C 
BRANCH   9  10
ATOM     10  CA  TYR A   1       4.236  -7.669  11.706  0.00  0.00    +0.137 C 
BRANCH  10  11
ATOM     11  N   TYR A   1       4.576  -6.523  10.869  0.00  0.00    -0.239 NA
ATOM     12  H   TYR A   1       4.514  -6.614   9.835  0.00  0.00    +0.142 HD
ENDBRANCH  10  11
BRANCH  10  13
ATOM     13  C   TYR A   1       5.128  -8.849  11.348  0.00  0.00    +0.224 C 
ATOM     14  O   TYR A   1       4.855  -9.976  11.751  0.00  0.00    -0.287 OA
ENDBRANCH  10  13
ENDBRANCH   9  10
ENDBRANCH   1   9
TORSDOF 5
REMARK  Name = ../refined-set-2016/1i9q/1i9q_pocket.pdb
REMARK  155 active torsions:
REMARK  status: ('A' for Active; 'I' for Inactive)
REMARK    1  A    between atoms: _1  and  _3
REMARK    2  A    between atoms: _3  and  _4
REMARK    3  A    between atoms: _3  and  _6
REMARK    4  A    between atoms: _6  and  _7
REMARK    5  A    between atoms: _17  and  _19
REMARK    6  A    between atoms: _19  and  _20
REMARK    7  A    between atoms: _19  and  _22
REMARK    8  A    between atoms: _22  and  _23
REMARK    9  A    between atoms: _28  and  _29
REMARK   10  A    between atoms: _31  and  _33
REMARK   11  A    between atoms: _33  and  _34
REMARK   12  A    between atoms: _33  and  _36
REMARK   13  A    between atoms: _36  and  _37
REMARK   14  A    between atoms: _40  and  _41
REMARK   15  A    between atoms: _46  and  _48
REMARK   16  A    between atoms: _48  and  _49
REMARK   17  A    between atoms: _48  and  _51
REMARK   18  A    between atoms: _51  and  _52
REMARK   19  A    between atoms: _57  and  _59
REMARK   20  A    between atoms: _59  and  _60
REMARK   21  A    between atoms: _59  and  _62
REMARK   22  A    between atoms: _62  and  _63
REMARK   23  A    between atoms: _68  and  _70
REMARK   24  A    between atoms: _70  and  _71
REMARK   25  A    between atoms: _74  and  _76
REMARK   26  A    between atoms: _76  and  _77
REMARK   27  A    between atoms: _76  and  _79
REMARK   28  A    between atoms: _79  and  _80
REMARK   29  A    between atoms: _85  and  _87
REMARK   30  A    between atoms: _87  and  _88
REMARK   31  A    between atoms: _87  and  _90
REMARK   32  A    between atoms: _90  and  _91
REMARK   33  A    between atoms: _94  and  _96
REMARK   34  A    between atoms: _96  and  _97
REMARK   35  A    between atoms: _96  and  _99
REMARK   36  A    between atoms: _99  and  _100
REMARK   37  A    between atoms: _100  and  _101
REMARK   38  A    between atoms: _106  and  _108
REMARK   39  A    between atoms: _108  and  _109
REMARK   40  A    between atoms: _108  and  _111
REMARK   41  A    between atoms: _111  and  _112
REMARK   42  A    between atoms: _118  and  _120
REMARK   43  A    between atoms: _131  and  _134
REMARK   44  A    between atoms: _134  and  _135
REMARK   45  A    between atoms: _143  and  _144
REMARK   46  A    between atoms: _152  and  _154
REMARK   47  A    between atoms: _154  and  _155
REMARK   48  A    between atoms: _154  and  _157
REMARK   49  A    between atoms: _157  and  _158
REMARK   50  A    between atoms: _158  and  _159
REMARK   51  A    between atoms: _162  and  _164
REMARK   52  A    between atoms: _164  and  _165
REMARK   53  A    between atoms: _164  and  _167
REMARK   54  A    between atoms: _167  and  _168
REMARK   55  A    between atoms: _173  and  _175
REMARK   56  A    between atoms: _175  and  _176
REMARK   57  A    between atoms: _175  and  _178
REMARK   58  A    between atoms: _178  and  _179
REMARK   59  A    between atoms: _179  and  _180
REMARK   60  A    between atoms: _183  and  _185
REMARK   61  A    between atoms: _185  and  _186
REMARK   62  A    between atoms: _185  and  _188
REMARK   63  A    between atoms: _188  and  _189
REMARK   64  A    between atoms: _192  and  _194
REMARK   65  A    between atoms: _194  and  _195
REMARK   66  A    between atoms: _194  and  _197
REMARK   67  A    between atoms: _197  and  _198
REMARK   68  A    between atoms: _199  and  ZN_433
REMARK   69  A    between atoms: _203  and  _205
REMARK   70  A    between atoms: _205  and  _206
REMARK   71  A    between atoms: _205  and  _208
REMARK   72  A    between atoms: _208  and  _209
REMARK   73  A    between atoms: _212  and  _214
REMARK   74  A    between atoms: _214  and  _215
REMARK   75  A    between atoms: _214  and  _217
REMARK   76  A    between atoms: _220  and  _222
REMARK   77  A    between atoms: _222  and  _223
REMARK   78  A    between atoms: _222  and  _225
REMARK   79  A    between atoms: _225  and  _226
REMARK   80  A    between atoms: _231  and  _233
REMARK   81  A    between atoms: _233  and  _234
REMARK   82  A    between atoms: _233  and  _236
REMARK   83  A    between atoms: _239  and  _241
REMARK   84  A    between atoms: _241  and  _242
REMARK   85  A    between atoms: _244  and  _246
REMARK   86  A    between atoms: _246  and  _247
REMARK   87  A    between atoms: _250  and  _252
REMARK   88  A    between atoms: _252  and  _253
REMARK   89  A    between atoms: _252  and  _255
REMARK   90  A    between atoms: _258  and  _260
REMARK   91  A    between atoms: _260  and  _261
REMARK   92  A    between atoms: _260  and  _263
REMARK   93  A    between atoms: _263  and  _264
REMARK   94  A    between atoms: _264  and  _265
REMARK   95  A    between atoms: _270  and  _272
REMARK   96  A    between atoms: _272  and  _273
REMARK   97  A    between atoms: _272  and  _275
REMARK   98  A    between atoms: _275  and  _276
REMARK   99  A    between atoms: _279  and  _281
REMARK  100  A    between atoms: _281  and  _282
REMARK  101  A    between atoms: _285  and  _287
REMARK  102  A    between atoms: _287  and  _288
REMARK  103  A    between atoms: _287  and  _290
REMARK  104  A    between atoms: _293  and  _295
REMARK  105  A    between atoms: _295  and  _296
REMARK  106  A    between atoms: _295  and  _298
REMARK  107  A    between atoms: _298  and  _299
REMARK  108  A    between atoms: _302  and  _304
REMARK  109  A    between atoms: _304  and  _305
REMARK  110  A    between atoms: _307  and  _309
REMARK  111  A    between atoms: _309  and  _310
REMARK  112  A    between atoms: _309  and  _312
REMARK  113  A    between atoms: _312  and  _313
REMARK  114  A    between atoms: _315  and  _317
REMARK  115  A    between atoms: _317  and  _318
REMARK  116  A    between atoms: _317  and  _320
REMARK  117  A    between atoms: _320  and  _321
REMARK  118  A    between atoms: _324  and  _326
REMARK  119  A    between atoms: _326  and  _327
REMARK  120  A    between atoms: _326  and  _329
REMARK  121  A    between atoms: _329  and  _330
REMARK  122  A    between atoms: _333  and  _335
REMARK  123  A    between atoms: _335  and  _336
REMARK  124  A    between atoms: _335  and  _338
REMARK  125  A    between atoms: _338  and  _339
REMARK  126  A    between atoms: _343  and  _344
REMARK  127  A    between atoms: _350  and  _351
REMARK  128  A    between atoms: _356  and  _358
REMARK  129  A    between atoms: _358  and  _359
REMARK  130  A    between atoms: _358  and  _361
REMARK  131  A    between atoms: _361  and  _362
REMARK  132  A    between atoms: _365  and  _367
REMARK  133  A    between atoms: _367  and  _368
REMARK  134  A    between atoms: _367  and  _370
REMARK  135  A    between atoms: _370  and  _371
REMARK  136  A    between atoms: _374  and  _376
REMARK  137  A    between atoms: _376  and  _377
REMARK  138  A    between atoms: _376  and  _379
REMARK  139  A    between atoms: _381  and  _383
REMARK  140  A    between atoms: _383  and  _384
REMARK  141  A    between atoms: _383  and  _386
REMARK  142  A    between atoms: _389  and  _391
REMARK  143  A    between atoms: _391  and  _392
REMARK  144  A    between atoms: _391  and  _394
REMARK  145  A    between atoms: _394  and  _395
REMARK  146  A    between atoms: _405  and  _407
REMARK  147  A    between atoms: _407  and  _408
REMARK  148  A    between atoms: _407  and  _410
REMARK  149  A    between atoms: _410  and  _411
REMARK  150  A    between atoms: _416  and  _418
REMARK  151  A    between atoms: _418  and  _419
REMARK  152  A    between atoms: _418  and  _421
REMARK  153  A    between atoms: _421  and  _422
REMARK  154  A    between atoms: _422  and  _423
REMARK  155  A    between atoms: _423  and  _424
REMARK                            x       y       z     vdW  Elec       q    Type
REMARK                         _______ _______ _______ _____ _____    ______ ____
ROOT
ATOM      1  C   SER A   1      -2.443  -3.085  23.418  0.00  0.00    +0.244 C 
ATOM      2  N   PRO A   2      -3.072  -4.239  23.162  0.00  0.00    -0.273 N 
ATOM      3  CA  PRO A   2      -4.269  -4.767  23.813  0.00  0.00    +0.140 C 
ATOM      4  CB  PRO A   2      -4.777  -5.761  22.789  0.00  0.00    +0.030 C 
ATOM      5  CG  PRO A   2      -3.487  -6.326  22.257  0.00  0.00    +0.024 C 
ATOM      6  CD  PRO A   2      -2.679  -5.093  22.027  0.00  0.00    +0.094 C 
ATOM      7  O   SER A   1      -1.495  -2.708  22.741  0.00  0.00    -0.273 OA
ENDROOT
BRANCH   3   8
ATOM      8  C   PRO A   2      -3.877  -5.478  25.089  0.00  0.00    +0.227 C 
ATOM      9  O   PRO A   2      -2.691  -5.594  25.398  0.00  0.00    -0.286 OA
ENDBRANCH   3   8
BRANCH   1  10
ATOM     10  CA  SER A   1      -3.015  -2.188  24.513  0.00  0.00    +0.175 C 
BRANCH  10  11
ATOM     11  N   SER A   1      -1.966  -1.275  24.932  0.00  0.00    -0.236 NA
ATOM     12  H   SER A   1      -1.530  -0.656  24.219  0.00  0.00    +0.142 HD
ENDBRANCH  10  11
BRANCH  10  13
ATOM     13  CB  SER A   1      -4.196  -1.394  23.951  0.00  0.00    +0.163 C 
BRANCH  13  14
ATOM     14  OG  SER A   1      -4.775  -0.576  24.939  0.00  0.00    -0.380 OA
ATOM     15  H   SER A   1      -5.099  -1.141  25.685  0.00  0.00    +0.211 HD
ENDBRANCH  13  14
ENDBRANCH  10  13
ENDBRANCH   1  10
TORSDOF 5
REMARK  Name = ../refined-set-2016/1i9q/1i9q_pocket.pdb
REMARK  155 active torsions:
REMARK  status: ('A' for Active; 'I' for Inactive)
REMARK    1  A    between atoms: _1  and  _3
REMARK    2  A    between atoms: _3  and  _4
REMARK    3  A    between atoms: _3  and  _6
REMARK    4  A    between atoms: _6  and  _7
REMARK    5  A    between atoms: _17  and  _19
REMARK    6  A    between atoms: _19  and  _20
REMARK    7  A    between atoms: _19  and  _22
REMARK    8  A    between atoms: _22  and  _23
REMARK    9  A    between atoms: _28  and  _29
REMARK   10  A    between atoms: _31  and  _33
REMARK   11  A    between atoms: _33  and  _34
REMARK   12  A    between atoms: _33  and  _36
REMARK   13  A    between atoms: _36  and  _37
REMARK   14  A    between atoms: _40  and  _41
REMARK   15  A    between atoms: _46  and  _48
REMARK   16  A    between atoms: _48  and  _49
REMARK   17  A    between atoms: _48  and  _51
REMARK   18  A    between atoms: _51  and  _52
REMARK   19  A    between atoms: _57  and  _59
REMARK   20  A    between atoms: _59  and  _60
REMARK   21  A    between atoms: _59  and  _62
REMARK   22  A    between atoms: _62  and  _63
REMARK   23  A    between atoms: _68  and  _70
REMARK   24  A    between atoms: _70  and  _71
REMARK   25  A    between atoms: _74  and  _76
REMARK   26  A    between atoms: _76  and  _77
REMARK   27  A    between atoms: _76  and  _79
REMARK   28  A    between atoms: _79  and  _80
REMARK   29  A    between atoms: _85  and  _87
REMARK   30  A    between atoms: _87  and  _88
REMARK   31  A    between atoms: _87  and  _90
REMARK   32  A    between atoms: _90  and  _91
REMARK   33  A    between atoms: _94  and  _96
REMARK   34  A    between atoms: _96  and  _97
REMARK   35  A    between atoms: _96  and  _99
REMARK   36  A    between atoms: _99  and  _100
REMARK   37  A    between atoms: _100  and  _101
REMARK   38  A    between atoms: _106  and  _108
REMARK   39  A    between atoms: _108  and  _109
REMARK   40  A    between atoms: _108  and  _111
REMARK   41  A    between atoms: _111  and  _112
REMARK   42  A    between atoms: _118  and  _120
REMARK   43  A    between atoms: _131  and  _134
REMARK   44  A    between atoms: _134  and  _135
REMARK   45  A    between atoms: _143  and  _144
REMARK   46  A    between atoms: _152  and  _154
REMARK   47  A    between atoms: _154  and  _155
REMARK   48  A    between atoms: _154  and  _157
REMARK   49  A    between atoms: _157  and  _158
REMARK   50  A    between atoms: _158  and  _159
REMARK   51  A    between atoms: _162  and  _164
REMARK   52  A    between atoms: _164  and  _165
REMARK   53  A    between atoms: _164  and  _167
REMARK   54  A    between atoms: _167  and  _168
REMARK   55  A    between atoms: _173  and  _175
REMARK   56  A    between atoms: _175  and  _176
REMARK   57  A    between atoms: _175  and  _178
REMARK   58  A    between atoms: _178  and  _179
REMARK   59  A    between atoms: _179  and  _180
REMARK   60  A    between atoms: _183  and  _185
REMARK   61  A    between atoms: _185  and  _186
REMARK   62  A    between atoms: _185  and  _188
REMARK   63  A    between atoms: _188  and  _189
REMARK   64  A    between atoms: _192  and  _194
REMARK   65  A    between atoms: _194  and  _195
REMARK   66  A    between atoms: _194  and  _197
REMARK   67  A    between atoms: _197  and  _198
REMARK   68  A    between atoms: _199  and  ZN_433
REMARK   69  A    between atoms: _203  and  _205
REMARK   70  A    between atoms: _205  and  _206
REMARK   71  A    between atoms: _205  and  _208
REMARK   72  A    between atoms: _208  and  _209
REMARK   73  A    between atoms: _212  and  _214
REMARK   74  A    between atoms: _214  and  _215
REMARK   75  A    between atoms: _214  and  _217
REMARK   76  A    between atoms: _220  and  _222
REMARK   77  A    between atoms: _222  and  _223
REMARK   78  A    between atoms: _222  and  _225
REMARK   79  A    between atoms: _225  and  _226
REMARK   80  A    between atoms: _231  and  _233
REMARK   81  A    between atoms: _233  and  _234
REMARK   82  A    between atoms: _233  and  _236
REMARK   83  A    between atoms: _239  and  _241
REMARK   84  A    between atoms: _241  and  _242
REMARK   85  A    between atoms: _244  and  _246
REMARK   86  A    between atoms: _246  and  _247
REMARK   87  A    between atoms: _250  and  _252
REMARK   88  A    between atoms: _252  and  _253
REMARK   89  A    between atoms: _252  and  _255
REMARK   90  A    between atoms: _258  and  _260
REMARK   91  A    between atoms: _260  and  _261
REMARK   92  A    between atoms: _260  and  _263
REMARK   93  A    between atoms: _263  and  _264
REMARK   94  A    between atoms: _264  and  _265
REMARK   95  A    between atoms: _270  and  _272
REMARK   96  A    between atoms: _272  and  _273
REMARK   97  A    between atoms: _272  and  _275
REMARK   98  A    between atoms: _275  and  _276
REMARK   99  A    between atoms: _279  and  _281
REMARK  100  A    between atoms: _281  and  _282
REMARK  101  A    between atoms: _285  and  _287
REMARK  102  A    between atoms: _287  and  _288
REMARK  103  A    between atoms: _287  and  _290
REMARK  104  A    between atoms: _293  and  _295
REMARK  105  A    between atoms: _295  and  _296
REMARK  106  A    between atoms: _295  and  _298
REMARK  107  A    between atoms: _298  and  _299
REMARK  108  A    between atoms: _302  and  _304
REMARK  109  A    between atoms: _304  and  _305
REMARK  110  A    between atoms: _307  and  _309
REMARK  111  A    between atoms: _309  and  _310
REMARK  112  A    between atoms: _309  and  _312
REMARK  113  A    between atoms: _312  and  _313
REMARK  114  A    between atoms: _315  and  _317
REMARK  115  A    between atoms: _317  and  _318
REMARK  116  A    between atoms: _317  and  _320
REMARK  117  A    between atoms: _320  and  _321
REMARK  118  A    between atoms: _324  and  _326
REMARK  119  A    between atoms: _326  and  _327
REMARK  120  A    between atoms: _326  and  _329
REMARK  121  A    between atoms: _329  and  _330
REMARK  122  A    between atoms: _333  and  _335
REMARK  123  A    between atoms: _335  and  _336
REMARK  124  A    between atoms: _335  and  _338
REMARK  125  A    between atoms: _338  and  _339
REMARK  126  A    between atoms: _343  and  _344
REMARK  127  A    between atoms: _350  and  _351
REMARK  128  A    between atoms: _356  and  _358
REMARK  129  A    between atoms: _358  and  _359
REMARK  130  A    between atoms: _358  and  _361
REMARK  131  A    between atoms: _361  and  _362
REMARK  132  A    between atoms: _365  and  _367
REMARK  133  A    between atoms: _367  and  _368
REMARK  134  A    between atoms: _367  and  _370
REMARK  135  A    between atoms: _370  and  _371
REMARK  136  A    between atoms: _374  and  _376
REMARK  137  A    between atoms: _376  and  _377
REMARK  138  A    between atoms: _376  and  _379
REMARK  139  A    between atoms: _381  and  _383
REMARK  140  A    between atoms: _383  and  _384
REMARK  141  A    between atoms: _383  and  _386
REMARK  142  A    between atoms: _389  and  _391
REMARK  143  A    between atoms: _391  and  _392
REMARK  144  A    between atoms: _391  and  _394
REMARK  145  A    between atoms: _394  and  _395
REMARK  146  A    between atoms: _405  and  _407
REMARK  147  A    between atoms: _407  and  _408
REMARK  148  A    between atoms: _407  and  _410
REMARK  149  A    between atoms: _410  and  _411
REMARK  150  A    between atoms: _416  and  _418
REMARK  151  A    between atoms: _418  and  _419
REMARK  152  A    between atoms: _418  and  _421
REMARK  153  A    between atoms: _421  and  _422
REMARK  154  A    between atoms: _422  and  _423
REMARK  155  A    between atoms: _423  and  _424
REMARK                            x       y       z     vdW  Elec       q    Type
REMARK                         _______ _______ _______ _____ _____    ______ ____
ROOT
ATOM      1  CB  ASN A   1      -2.865   2.114   5.319  0.00  0.00    +0.110 C 
ENDROOT
BRANCH   1   2
ATOM      2  CG  ASN A   1      -3.151   1.307   6.559  0.00  0.00    +0.221 C 
ATOM      3  ND2 ASN A   1      -3.757   1.950   7.546  0.00  0.00    -0.329 N 
ATOM      4 HD21 ASN A   1      -3.968   1.456   8.436  0.00  0.00    +0.145 HD
ATOM      5 HD22 ASN A   1      -4.021   2.949   7.431  0.00  0.00    +0.145 HD
ATOM      6  OD1 ASN A   1      -2.818   0.126   6.645  0.00  0.00    -0.275 OA
ENDBRANCH   1   2
BRANCH   1   7
ATOM      7  CA  ASN A   1      -2.487   1.249   4.108  0.00  0.00    +0.142 C 
BRANCH   7   8
ATOM      8  N   ASN A   1      -3.621   0.444   3.671  0.00  0.00    -0.239 NA
ATOM      9  H   ASN A   1      -4.219  -0.038   4.372  0.00  0.00    +0.142 HD
ENDBRANCH   7   8
BRANCH   7  10
ATOM     10  C   ASN A   1      -1.191   0.461   4.365  0.00  0.00    +0.225 C 
ATOM     11  O   ASN A   1      -0.214   1.011   4.879  0.00  0.00    -0.287 OA
ENDBRANCH   7  10
ENDBRANCH   1   7
TORSDOF 4
REMARK  Name = ../refined-set-2016/1i9q/1i9q_pocket.pdb
REMARK  155 active torsions:
REMARK  status: ('A' for Active; 'I' for Inactive)
REMARK    1  A    between atoms: _1  and  _3
REMARK    2  A    between atoms: _3  and  _4
REMARK    3  A    between atoms: _3  and  _6
REMARK    4  A    between atoms: _6  and  _7
REMARK    5  A    between atoms: _17  and  _19
REMARK    6  A    between atoms: _19  and  _20
REMARK    7  A    between atoms: _19  and  _22
REMARK    8  A    between atoms: _22  and  _23
REMARK    9  A    between atoms: _28  and  _29
REMARK   10  A    between atoms: _31  and  _33
REMARK   11  A    between atoms: _33  and  _34
REMARK   12  A    between atoms: _33  and  _36
REMARK   13  A    between atoms: _36  and  _37
REMARK   14  A    between atoms: _40  and  _41
REMARK   15  A    between atoms: _46  and  _48
REMARK   16  A    between atoms: _48  and  _49
REMARK   17  A    between atoms: _48  and  _51
REMARK   18  A    between atoms: _51  and  _52
REMARK   19  A    between atoms: _57  and  _59
REMARK   20  A    between atoms: _59  and  _60
REMARK   21  A    between atoms: _59  and  _62
REMARK   22  A    between atoms: _62  and  _63
REMARK   23  A    between atoms: _68  and  _70
REMARK   24  A    between atoms: _70  and  _71
REMARK   25  A    between atoms: _74  and  _76
REMARK   26  A    between atoms: _76  and  _77
REMARK   27  A    between atoms: _76  and  _79
REMARK   28  A    between atoms: _79  and  _80
REMARK   29  A    between atoms: _85  and  _87
REMARK   30  A    between atoms: _87  and  _88
REMARK   31  A    between atoms: _87  and  _90
REMARK   32  A    between atoms: _90  and  _91
REMARK   33  A    between atoms: _94  and  _96
REMARK   34  A    between atoms: _96  and  _97
REMARK   35  A    between atoms: _96  and  _99
REMARK   36  A    between atoms: _99  and  _100
REMARK   37  A    between atoms: _100  and  _101
REMARK   38  A    between atoms: _106  and  _108
REMARK   39  A    between atoms: _108  and  _109
REMARK   40  A    between atoms: _108  and  _111
REMARK   41  A    between atoms: _111  and  _112
REMARK   42  A    between atoms: _118  and  _120
REMARK   43  A    between atoms: _131  and  _134
REMARK   44  A    between atoms: _134  and  _135
REMARK   45  A    between atoms: _143  and  _144
REMARK   46  A    between atoms: _152  and  _154
REMARK   47  A    between atoms: _154  and  _155
REMARK   48  A    between atoms: _154  and  _157
REMARK   49  A    between atoms: _157  and  _158
REMARK   50  A    between atoms: _158  and  _159
REMARK   51  A    between atoms: _162  and  _164
REMARK   52  A    between atoms: _164  and  _165
REMARK   53  A    between atoms: _164  and  _167
REMARK   54  A    between atoms: _167  and  _168
REMARK   55  A    between atoms: _173  and  _175
REMARK   56  A    between atoms: _175  and  _176
REMARK   57  A    between atoms: _175  and  _178
REMARK   58  A    between atoms: _178  and  _179
REMARK   59  A    between atoms: _179  and  _180
REMARK   60  A    between atoms: _183  and  _185
REMARK   61  A    between atoms: _185  and  _186
REMARK   62  A    between atoms: _185  and  _188
REMARK   63  A    between atoms: _188  and  _189
REMARK   64  A    between atoms: _192  and  _194
REMARK   65  A    between atoms: _194  and  _195
REMARK   66  A    between atoms: _194  and  _197
REMARK   67  A    between atoms: _197  and  _198
REMARK   68  A    between atoms: _199  and  ZN_433
REMARK   69  A    between atoms: _203  and  _205
REMARK   70  A    between atoms: _205  and  _206
REMARK   71  A    between atoms: _205  and  _208
REMARK   72  A    between atoms: _208  and  _209
REMARK   73  A    between atoms: _212  and  _214
REMARK   74  A    between atoms: _214  and  _215
REMARK   75  A    between atoms: _214  and  _217
REMARK   76  A    between atoms: _220  and  _222
REMARK   77  A    between atoms: _222  and  _223
REMARK   78  A    between atoms: _222  and  _225
REMARK   79  A    between atoms: _225  and  _226
REMARK   80  A    between atoms: _231  and  _233
REMARK   81  A    between atoms: _233  and  _234
REMARK   82  A    between atoms: _233  and  _236
REMARK   83  A    between atoms: _239  and  _241
REMARK   84  A    between atoms: _241  and  _242
REMARK   85  A    between atoms: _244  and  _246
REMARK   86  A    between atoms: _246  and  _247
REMARK   87  A    between atoms: _250  and  _252
REMARK   88  A    between atoms: _252  and  _253
REMARK   89  A    between atoms: _252  and  _255
REMARK   90  A    between atoms: _258  and  _260
REMARK   91  A    between atoms: _260  and  _261
REMARK   92  A    between atoms: _260  and  _263
REMARK   93  A    between atoms: _263  and  _264
REMARK   94  A    between atoms: _264  and  _265
REMARK   95  A    between atoms: _270  and  _272
REMARK   96  A    between atoms: _272  and  _273
REMARK   97  A    between atoms: _272  and  _275
REMARK   98  A    between atoms: _275  and  _276
REMARK   99  A    between atoms: _279  and  _281
REMARK  100  A    between atoms: _281  and  _282
REMARK  101  A    between atoms: _285  and  _287
REMARK  102  A    between atoms: _287  and  _288
REMARK  103  A    between atoms: _287  and  _290
REMARK  104  A    between atoms: _293  and  _295
REMARK  105  A    between atoms: _295  and  _296
REMARK  106  A    between atoms: _295  and  _298
REMARK  107  A    between atoms: _298  and  _299
REMARK  108  A    between atoms: _302  and  _304
REMARK  109  A    between atoms: _304  and  _305
REMARK  110  A    between atoms: _307  and  _309
REMARK  111  A    between atoms: _309  and  _310
REMARK  112  A    between atoms: _309  and  _312
REMARK  113  A    between atoms: _312  and  _313
REMARK  114  A    between atoms: _315  and  _317
REMARK  115  A    between atoms: _317  and  _318
REMARK  116  A    between atoms: _317  and  _320
REMARK  117  A    between atoms: _320  and  _321
REMARK  118  A    between atoms: _324  and  _326
REMARK  119  A    between atoms: _326  and  _327
REMARK  120  A    between atoms: _326  and  _329
REMARK  121  A    between atoms: _329  and  _330
REMARK  122  A    between atoms: _333  and  _335
REMARK  123  A    between atoms: _335  and  _336
REMARK  124  A    between atoms: _335  and  _338
REMARK  125  A    between atoms: _338  and  _339
REMARK  126  A    between atoms: _343  and  _344
REMARK  127  A    between atoms: _350  and  _351
REMARK  128  A    between atoms: _356  and  _358
REMARK  129  A    between atoms: _358  and  _359
REMARK  130  A    between atoms: _358  and  _361
REMARK  131  A    between atoms: _361  and  _362
REMARK  132  A    between atoms: _365  and  _367
REMARK  133  A    between atoms: _367  and  _368
REMARK  134  A    between atoms: _367  and  _370
REMARK  135  A    between atoms: _370  and  _371
REMARK  136  A    between atoms: _374  and  _376
REMARK  137  A    between atoms: _376  and  _377
REMARK  138  A    between atoms: _376  and  _379
REMARK  139  A    between atoms: _381  and  _383
REMARK  140  A    between atoms: _383  and  _384
REMARK  141  A    between atoms: _383  and  _386
REMARK  142  A    between atoms: _389  and  _391
REMARK  143  A    between atoms: _391  and  _392
REMARK  144  A    between atoms: _391  and  _394
REMARK  145  A    between atoms: _394  and  _395
REMARK  146  A    between atoms: _405  and  _407
REMARK  147  A    between atoms: _407  and  _408
REMARK  148  A    between atoms: _407  and  _410
REMARK  149  A    between atoms: _410  and  _411
REMARK  150  A    between atoms: _416  and  _418
REMARK  151  A    between atoms: _418  and  _419
REMARK  152  A    between atoms: _418  and  _421
REMARK  153  A    between atoms: _421  and  _422
REMARK  154  A    between atoms: _422  and  _423
REMARK  155  A    between atoms: _423  and  _424
REMARK                            x       y       z     vdW  Elec       q    Type
REMARK                         _______ _______ _______ _____ _____    ______ ____
ROOT
ATOM      1  CA  HIS A   1      -0.969  -2.730   7.734  0.00  0.00    +0.151 C 
ENDROOT
BRANCH   1   2
ATOM      2  C   HIS A   1      -2.340  -3.378   7.942  0.00  0.00    +0.239 C 
ATOM      3  O   HIS A   1      -2.459  -4.397   8.638  0.00  0.00    -0.274 OA
ATOM      4  N   ALA A   2      -3.350  -2.801   7.290  0.00  0.00    -0.298 N 
ATOM      5  H   ALA A   2      -3.137  -1.972   6.699  0.00  0.00    +0.150 HD
BRANCH   4   6
ATOM      6  CA  ALA A   2      -4.727  -3.254   7.352  0.00  0.00    +0.137 C 
ATOM      7  CB  ALA A   2      -5.305  -2.973   8.746  0.00  0.00    +0.030 C 
BRANCH   6   8
ATOM      8  C   ALA A   2      -5.449  -2.409   6.316  0.00  0.00    +0.227 C 
ATOM      9  O   ALA A   2      -4.798  -1.723   5.526  0.00  0.00    -0.286 OA
ENDBRANCH   6   8
ENDBRANCH   4   6
ENDBRANCH   1   2
BRANCH   1  10
ATOM     10  N   HIS A   1      -0.902  -2.077   6.424  0.00  0.00    -0.238 NA
ATOM     11  H   HIS A   1      -1.599  -1.341   6.191  0.00  0.00    +0.142 HD
ENDBRANCH   1  10
BRANCH   1  12
ATOM     12  CB  HIS A   1      -0.678  -1.710   8.834  0.00  0.00    +0.074 C 
BRANCH  12  13
ATOM     13  CG  HIS A   1       0.612  -0.980   8.632  0.00  0.00    +0.082 A 
ATOM     14  CD2 HIS A   1       1.897  -1.406   8.708  0.00  0.00    +0.115 A 
ATOM     15  NE2 HIS A   1       2.699  -0.340   8.382  0.00  0.00    -0.221 NA
ATOM     16  CE1 HIS A   1       1.934   0.704   8.115  0.00  0.00    +0.199 A 
ATOM     17  ND1 HIS A   1       0.669   0.345   8.260  0.00  0.00    -0.227 NA
ENDBRANCH  12  13
ENDBRANCH   1  12
TORSDOF 6
REMARK  Name = ../refined-set-2016/1i9q/1i9q_pocket.pdb
REMARK  155 active torsions:
REMARK  status: ('A' for Active; 'I' for Inactive)
REMARK    1  A    between atoms: _1  and  _3
REMARK    2  A    between atoms: _3  and  _4
REMARK    3  A    between atoms: _3  and  _6
REMARK    4  A    between atoms: _6  and  _7
REMARK    5  A    between atoms: _17  and  _19
REMARK    6  A    between atoms: _19  and  _20
REMARK    7  A    between atoms: _19  and  _22
REMARK    8  A    between atoms: _22  and  _23
REMARK    9  A    between atoms: _28  and  _29
REMARK   10  A    between atoms: _31  and  _33
REMARK   11  A    between atoms: _33  and  _34
REMARK   12  A    between atoms: _33  and  _36
REMARK   13  A    between atoms: _36  and  _37
REMARK   14  A    between atoms: _40  and  _41
REMARK   15  A    between atoms: _46  and  _48
REMARK   16  A    between atoms: _48  and  _49
REMARK   17  A    between atoms: _48  and  _51
REMARK   18  A    between atoms: _51  and  _52
REMARK   19  A    between atoms: _57  and  _59
REMARK   20  A    between atoms: _59  and  _60
REMARK   21  A    between atoms: _59  and  _62
REMARK   22  A    between atoms: _62  and  _63
REMARK   23  A    between atoms: _68  and  _70
REMARK   24  A    between atoms: _70  and  _71
REMARK   25  A    between atoms: _74  and  _76
REMARK   26  A    between atoms: _76  and  _77
REMARK   27  A    between atoms: _76  and  _79
REMARK   28  A    between atoms: _79  and  _80
REMARK   29  A    between atoms: _85  and  _87
REMARK   30  A    between atoms: _87  and  _88
REMARK   31  A    between atoms: _87  and  _90
REMARK   32  A    between atoms: _90  and  _91
REMARK   33  A    between atoms: _94  and  _96
REMARK   34  A    between atoms: _96  and  _97
REMARK   35  A    between atoms: _96  and  _99
REMARK   36  A    between atoms: _99  and  _100
REMARK   37  A    between atoms: _100  and  _101
REMARK   38  A    between atoms: _106  and  _108
REMARK   39  A    between atoms: _108  and  _109
REMARK   40  A    between atoms: _108  and  _111
REMARK   41  A    between atoms: _111  and  _112
REMARK   42  A    between atoms: _118  and  _120
REMARK   43  A    between atoms: _131  and  _134
REMARK   44  A    between atoms: _134  and  _135
REMARK   45  A    between atoms: _143  and  _144
REMARK   46  A    between atoms: _152  and  _154
REMARK   47  A    between atoms: _154  and  _155
REMARK   48  A    between atoms: _154  and  _157
REMARK   49  A    between atoms: _157  and  _158
REMARK   50  A    between atoms: _158  and  _159
REMARK   51  A    between atoms: _162  and  _164
REMARK   52  A    between atoms: _164  and  _165
REMARK   53  A    between atoms: _164  and  _167
REMARK   54  A    between atoms: _167  and  _168
REMARK   55  A    between atoms: _173  and  _175
REMARK   56  A    between atoms: _175  and  _176
REMARK   57  A    between atoms: _175  and  _178
REMARK   58  A    between atoms: _178  and  _179
REMARK   59  A    between atoms: _179  and  _180
REMARK   60  A    between atoms: _183  and  _185
REMARK   61  A    between atoms: _185  and  _186
REMARK   62  A    between atoms: _185  and  _188
REMARK   63  A    between atoms: _188  and  _189
REMARK   64  A    between atoms: _192  and  _194
REMARK   65  A    between atoms: _194  and  _195
REMARK   66  A    between atoms: _194  and  _197
REMARK   67  A    between atoms: _197  and  _198
REMARK   68  A    between atoms: _199  and  ZN_433
REMARK   69  A    between atoms: _203  and  _205
REMARK   70  A    between atoms: _205  and  _206
REMARK   71  A    between atoms: _205  and  _208
REMARK   72  A    between atoms: _208  and  _209
REMARK   73  A    between atoms: _212  and  _214
REMARK   74  A    between atoms: _214  and  _215
REMARK   75  A    between atoms: _214  and  _217
REMARK   76  A    between atoms: _220  and  _222
REMARK   77  A    between atoms: _222  and  _223
REMARK   78  A    between atoms: _222  and  _225
REMARK   79  A    between atoms: _225  and  _226
REMARK   80  A    between atoms: _231  and  _233
REMARK   81  A    between atoms: _233  and  _234
REMARK   82  A    between atoms: _233  and  _236
REMARK   83  A    between atoms: _239  and  _241
REMARK   84  A    between atoms: _241  and  _242
REMARK   85  A    between atoms: _244  and  _246
REMARK   86  A    between atoms: _246  and  _247
REMARK   87  A    between atoms: _250  and  _252
REMARK   88  A    between atoms: _252  and  _253
REMARK   89  A    between atoms: _252  and  _255
REMARK   90  A    between atoms: _258  and  _260
REMARK   91  A    between atoms: _260  and  _261
REMARK   92  A    between atoms: _260  and  _263
REMARK   93  A    between atoms: _263  and  _264
REMARK   94  A    between atoms: _264  and  _265
REMARK   95  A    between atoms: _270  and  _272
REMARK   96  A    between atoms: _272  and  _273
REMARK   97  A    between atoms: _272  and  _275
REMARK   98  A    between atoms: _275  and  _276
REMARK   99  A    between atoms: _279  and  _281
REMARK  100  A    between atoms: _281  and  _282
REMARK  101  A    between atoms: _285  and  _287
REMARK  102  A    between atoms: _287  and  _288
REMARK  103  A    between atoms: _287  and  _290
REMARK  104  A    between atoms: _293  and  _295
REMARK  105  A    between atoms: _295  and  _296
REMARK  106  A    between atoms: _295  and  _298
REMARK  107  A    between atoms: _298  and  _299
REMARK  108  A    between atoms: _302  and  _304
REMARK  109  A    between atoms: _304  and  _305
REMARK  110  A    between atoms: _307  and  _309
REMARK  111  A    between atoms: _309  and  _310
REMARK  112  A    between atoms: _309  and  _312
REMARK  113  A    between atoms: _312  and  _313
REMARK  114  A    between atoms: _315  and  _317
REMARK  115  A    between atoms: _317  and  _318
REMARK  116  A    between atoms: _317  and  _320
REMARK  117  A    between atoms: _320  and  _321
REMARK  118  A    between atoms: _324  and  _326
REMARK  119  A    between atoms: _326  and  _327
REMARK  120  A    between atoms: _326  and  _329
REMARK  121  A    between atoms: _329  and  _330
REMARK  122  A    between atoms: _333  and  _335
REMARK  123  A    between atoms: _335  and  _336
REMARK  124  A    between atoms: _335  and  _338
REMARK  125  A    between atoms: _338  and  _339
REMARK  126  A    between atoms: _343  and  _344
REMARK  127  A    between atoms: _350  and  _351
REMARK  128  A    between atoms: _356  and  _358
REMARK  129  A    between atoms: _358  and  _359
REMARK  130  A    between atoms: _358  and  _361
REMARK  131  A    between atoms: _361  and  _362
REMARK  132  A    between atoms: _365  and  _367
REMARK  133  A    between atoms: _367  and  _368
REMARK  134  A    between atoms: _367  and  _370
REMARK  135  A    between atoms: _370  and  _371
REMARK  136  A    between atoms: _374  and  _376
REMARK  137  A    between atoms: _376  and  _377
REMARK  138  A    between atoms: _376  and  _379
REMARK  139  A    between atoms: _381  and  _383
REMARK  140  A    between atoms: _383  and  _384
REMARK  141  A    between atoms: _383  and  _386
REMARK  142  A    between atoms: _389  and  _391
REMARK  143  A    between atoms: _391  and  _392
REMARK  144  A    between atoms: _391  and  _394
REMARK  145  A    between atoms: _394  and  _395
REMARK  146  A    between atoms: _405  and  _407
REMARK  147  A    between atoms: _407  and  _408
REMARK  148  A    between atoms: _407  and  _410
REMARK  149  A    between atoms: _410  and  _411
REMARK  150  A    between atoms: _416  and  _418
REMARK  151  A    between atoms: _418  and  _419
REMARK  152  A    between atoms: _418  and  _421
REMARK  153  A    between atoms: _421  and  _422
REMARK  154  A    between atoms: _422  and  _423
REMARK  155  A    between atoms: _423  and  _424
REMARK                            x       y       z     vdW  Elec       q    Type
REMARK                         _______ _______ _______ _____ _____    ______ ____
ROOT
ATOM      1  CB  ASN A   1      -8.544   2.652   7.023  0.00  0.00    +0.110 C 
ENDROOT
BRANCH   1   2
ATOM      2  CG  ASN A   1      -7.485   2.409   8.066  0.00  0.00    +0.221 C 
ATOM      3  OD1 ASN A   1      -6.898   3.361   8.569  0.00  0.00    -0.275 OA
ATOM      4  ND2 ASN A   1      -7.223   1.162   8.398  0.00  0.00    -0.329 N 
ATOM      5 HD21 ASN A   1      -6.495   0.956   9.111  0.00  0.00    +0.145 HD
ATOM      6 HD22 ASN A   1      -7.744   0.383   7.947  0.00  0.00    +0.145 HD
ENDBRANCH   1   2
BRANCH   1   7
ATOM      7  CA  ASN A   1      -9.341   1.397   6.649  0.00  0.00    +0.142 C 
BRANCH   7   8
ATOM      8  N   ASN A   1      -8.507   0.461   5.912  0.00  0.00    -0.239 NA
ATOM      9  H   ASN A   1      -7.915   0.813   5.133  0.00  0.00    +0.142 HD
ENDBRANCH   7   8
BRANCH   7  10
ATOM     10  C   ASN A   1     -10.523   1.885   5.826  0.00  0.00    +0.225 C 
ATOM     11  O   ASN A   1     -10.386   2.138   4.622  0.00  0.00    -0.287 OA
ENDBRANCH   7  10
ENDBRANCH   1   7
TORSDOF 4
REMARK  Name = ../refined-set-2016/1i9q/1i9q_pocket.pdb
REMARK  155 active torsions:
REMARK  status: ('A' for Active; 'I' for Inactive)
REMARK    1  A    between atoms: _1  and  _3
REMARK    2  A    between atoms: _3  and  _4
REMARK    3  A    between atoms: _3  and  _6
REMARK    4  A    between atoms: _6  and  _7
REMARK    5  A    between atoms: _17  and  _19
REMARK    6  A    between atoms: _19  and  _20
REMARK    7  A    between atoms: _19  and  _22
REMARK    8  A    between atoms: _22  and  _23
REMARK    9  A    between atoms: _28  and  _29
REMARK   10  A    between atoms: _31  and  _33
REMARK   11  A    between atoms: _33  and  _34
REMARK   12  A    between atoms: _33  and  _36
REMARK   13  A    between atoms: _36  and  _37
REMARK   14  A    between atoms: _40  and  _41
REMARK   15  A    between atoms: _46  and  _48
REMARK   16  A    between atoms: _48  and  _49
REMARK   17  A    between atoms: _48  and  _51
REMARK   18  A    between atoms: _51  and  _52
REMARK   19  A    between atoms: _57  and  _59
REMARK   20  A    between atoms: _59  and  _60
REMARK   21  A    between atoms: _59  and  _62
REMARK   22  A    between atoms: _62  and  _63
REMARK   23  A    between atoms: _68  and  _70
REMARK   24  A    between atoms: _70  and  _71
REMARK   25  A    between atoms: _74  and  _76
REMARK   26  A    between atoms: _76  and  _77
REMARK   27  A    between atoms: _76  and  _79
REMARK   28  A    between atoms: _79  and  _80
REMARK   29  A    between atoms: _85  and  _87
REMARK   30  A    between atoms: _87  and  _88
REMARK   31  A    between atoms: _87  and  _90
REMARK   32  A    between atoms: _90  and  _91
REMARK   33  A    between atoms: _94  and  _96
REMARK   34  A    between atoms: _96  and  _97
REMARK   35  A    between atoms: _96  and  _99
REMARK   36  A    between atoms: _99  and  _100
REMARK   37  A    between atoms: _100  and  _101
REMARK   38  A    between atoms: _106  and  _108
REMARK   39  A    between atoms: _108  and  _109
REMARK   40  A    between atoms: _108  and  _111
REMARK   41  A    between atoms: _111  and  _112
REMARK   42  A    between atoms: _118  and  _120
REMARK   43  A    between atoms: _131  and  _134
REMARK   44  A    between atoms: _134  and  _135
REMARK   45  A    between atoms: _143  and  _144
REMARK   46  A    between atoms: _152  and  _154
REMARK   47  A    between atoms: _154  and  _155
REMARK   48  A    between atoms: _154  and  _157
REMARK   49  A    between atoms: _157  and  _158
REMARK   50  A    between atoms: _158  and  _159
REMARK   51  A    between atoms: _162  and  _164
REMARK   52  A    between atoms: _164  and  _165
REMARK   53  A    between atoms: _164  and  _167
REMARK   54  A    between atoms: _167  and  _168
REMARK   55  A    between atoms: _173  and  _175
REMARK   56  A    between atoms: _175  and  _176
REMARK   57  A    between atoms: _175  and  _178
REMARK   58  A    between atoms: _178  and  _179
REMARK   59  A    between atoms: _179  and  _180
REMARK   60  A    between atoms: _183  and  _185
REMARK   61  A    between atoms: _185  and  _186
REMARK   62  A    between atoms: _185  and  _188
REMARK   63  A    between atoms: _188  and  _189
REMARK   64  A    between atoms: _192  and  _194
REMARK   65  A    between atoms: _194  and  _195
REMARK   66  A    between atoms: _194  and  _197
REMARK   67  A    between atoms: _197  and  _198
REMARK   68  A    between atoms: _199  and  ZN_433
REMARK   69  A    between atoms: _203  and  _205
REMARK   70  A    between atoms: _205  and  _206
REMARK   71  A    between atoms: _205  and  _208
REMARK   72  A    between atoms: _208  and  _209
REMARK   73  A    between atoms: _212  and  _214
REMARK   74  A    between atoms: _214  and  _215
REMARK   75  A    between atoms: _214  and  _217
REMARK   76  A    between atoms: _220  and  _222
REMARK   77  A    between atoms: _222  and  _223
REMARK   78  A    between atoms: _222  and  _225
REMARK   79  A    between atoms: _225  and  _226
REMARK   80  A    between atoms: _231  and  _233
REMARK   81  A    between atoms: _233  and  _234
REMARK   82  A    between atoms: _233  and  _236
REMARK   83  A    between atoms: _239  and  _241
REMARK   84  A    between atoms: _241  and  _242
REMARK   85  A    between atoms: _244  and  _246
REMARK   86  A    between atoms: _246  and  _247
REMARK   87  A    between atoms: _250  and  _252
REMARK   88  A    between atoms: _252  and  _253
REMARK   89  A    between atoms: _252  and  _255
REMARK   90  A    between atoms: _258  and  _260
REMARK   91  A    between atoms: _260  and  _261
REMARK   92  A    between atoms: _260  and  _263
REMARK   93  A    between atoms: _263  and  _264
REMARK   94  A    between atoms: _264  and  _265
REMARK   95  A    between atoms: _270  and  _272
REMARK   96  A    between atoms: _272  and  _273
REMARK   97  A    between atoms: _272  and  _275
REMARK   98  A    between atoms: _275  and  _276
REMARK   99  A    between atoms: _279  and  _281
REMARK  100  A    between atoms: _281  and  _282
REMARK  101  A    between atoms: _285  and  _287
REMARK  102  A    between atoms: _287  and  _288
REMARK  103  A    between atoms: _287  and  _290
REMARK  104  A    between atoms: _293  and  _295
REMARK  105  A    between atoms: _295  and  _296
REMARK  106  A    between atoms: _295  and  _298
REMARK  107  A    between atoms: _298  and  _299
REMARK  108  A    between atoms: _302  and  _304
REMARK  109  A    between atoms: _304  and  _305
REMARK  110  A    between atoms: _307  and  _309
REMARK  111  A    between atoms: _309  and  _310
REMARK  112  A    between atoms: _309  and  _312
REMARK  113  A    between atoms: _312  and  _313
REMARK  114  A    between atoms: _315  and  _317
REMARK  115  A    between atoms: _317  and  _318
REMARK  116  A    between atoms: _317  and  _320
REMARK  117  A    between atoms: _320  and  _321
REMARK  118  A    between atoms: _324  and  _326
REMARK  119  A    between atoms: _326  and  _327
REMARK  120  A    between atoms: _326  and  _329
REMARK  121  A    between atoms: _329  and  _330
REMARK  122  A    between atoms: _333  and  _335
REMARK  123  A    between atoms: _335  and  _336
REMARK  124  A    between atoms: _335  and  _338
REMARK  125  A    between atoms: _338  and  _339
REMARK  126  A    between atoms: _343  and  _344
REMARK  127  A    between atoms: _350  and  _351
REMARK  128  A    between atoms: _356  and  _358
REMARK  129  A    between atoms: _358  and  _359
REMARK  130  A    between atoms: _358  and  _361
REMARK  131  A    between atoms: _361  and  _362
REMARK  132  A    between atoms: _365  and  _367
REMARK  133  A    between atoms: _367  and  _368
REMARK  134  A    between atoms: _367  and  _370
REMARK  135  A    between atoms: _370  and  _371
REMARK  136  A    between atoms: _374  and  _376
REMARK  137  A    between atoms: _376  and  _377
REMARK  138  A    between atoms: _376  and  _379
REMARK  139  A    between atoms: _381  and  _383
REMARK  140  A    between atoms: _383  and  _384
REMARK  141  A    between atoms: _383  and  _386
REMARK  142  A    between atoms: _389  and  _391
REMARK  143  A    between atoms: _391  and  _392
REMARK  144  A    between atoms: _391  and  _394
REMARK  145  A    between atoms: _394  and  _395
REMARK  146  A    between atoms: _405  and  _407
REMARK  147  A    between atoms: _407  and  _408
REMARK  148  A    between atoms: _407  and  _410
REMARK  149  A    between atoms: _410  and  _411
REMARK  150  A    between atoms: _416  and  _418
REMARK  151  A    between atoms: _418  and  _419
REMARK  152  A    between atoms: _418  and  _421
REMARK  153  A    between atoms: _421  and  _422
REMARK  154  A    between atoms: _422  and  _423
REMARK  155  A    between atoms: _423  and  _424
REMARK                            x       y       z     vdW  Elec       q    Type
REMARK                         _______ _______ _______ _____ _____    ______ ____
ROOT
ATOM      1  C   UNK A   4     -10.388  -1.422  10.373  0.00  0.00    +0.000 C 
ATOM      2  C   UNK A   4     -10.473  -2.700  11.183  0.00  0.00    +0.000 C 
ATOM      3  O   UNK A   4     -11.085  -2.728  12.254  0.00  0.00    +0.000 OA
ATOM      4  N   VAL A   5      -9.815  -3.742  10.694  0.00  0.00    +0.000 N 
ATOM      5  CA  VAL A   5      -9.814  -5.043  11.353  0.00  0.00    +0.000 C 
ATOM      6  C   VAL A   5      -8.393  -5.528  11.562  0.00  0.00    +0.000 C 
ATOM      7  N   UNK A   6      -8.262  -6.507  12.440  0.00  0.00    +0.000 N 
ATOM      8  H   UNK A   6      -9.104  -6.813  12.968  0.00  0.00    +0.000 HD
ATOM      9  C   UNK A   6      -7.001  -7.177  12.704  0.00  0.00    +0.000 C 
ATOM     10  C   UNK A   6      -6.526  -6.925  14.144  0.00  0.00    +0.000 C 
ATOM     11  C   UNK A   6      -6.203  -5.489  14.424  0.00  0.00    +0.000 A 
ATOM     12  C   UNK A   6      -7.017  -4.460  14.772  0.00  0.00    +0.000 A 
ATOM     13  N   UNK A   6      -6.291  -3.274  14.850  0.00  0.00    +0.000 N 
ATOM     14 ZN   UNK A   6      -6.986  -1.673  15.310  0.00  0.00    +0.000 Zn
ATOM     15  N   UNK A   4      -7.602  -0.746  13.882  0.00  0.00    +0.000 N 
ATOM     16  C   UNK A   4      -8.091   0.465  13.673  0.00  0.00    +0.000 A 
ATOM     17  N   UNK A   4      -8.594   0.576  12.437  0.00  0.00    +0.000 NA
ATOM     18  C   UNK A   4      -8.435  -0.632  11.798  0.00  0.00    +0.000 A 
ATOM     19  C   UNK A   4      -7.816  -1.443  12.695  0.00  0.00    +0.000 A 
ATOM     20  C   UNK A   6      -5.052  -3.618  14.551  0.00  0.00    +0.000 A 
ATOM     21  N   UNK A   6      -4.951  -4.937  14.291  0.00  0.00    +0.000 NA
ATOM     22  O   VAL A   5      -7.455  -5.050  10.942  0.00  0.00    +0.000 OA
ATOM     23  H   VAL A   5      -9.281  -3.628   9.809  0.00  0.00    +0.000 HD
ATOM     24  C   UNK A   4      -8.933  -0.919  10.416  0.00  0.00    +0.000 C 
ENDROOT
BRANCH  14  25
ATOM     25  N   UNK A   6      -8.283  -2.243  16.544  0.00  0.00    +0.000 N 
ATOM     26  C   UNK A   6      -7.958  -3.149  17.448  0.00  0.00    +0.000 A 
ATOM     27  N   UNK A   6      -9.037  -3.615  18.094  0.00  0.00    +0.000 NA
ATOM     28  C   UNK A   6     -10.131  -2.971  17.573  0.00  0.00    +0.000 A 
ATOM     29  C   UNK A   6      -9.659  -2.126  16.620  0.00  0.00    +0.000 A 
BRANCH  29  30
ATOM     30  C   UNK A   6     -10.410  -1.117  15.806  0.00  0.00    +0.000 C 
BRANCH  30  31
ATOM     31  C   UNK A   6     -11.918  -1.386  15.702  0.00  0.00    +0.000 C 
BRANCH  31  32
ATOM     32  C   UNK A   6     -12.584  -0.183  15.032  0.00  0.00    +0.000 C 
ATOM     33  N   UNK A   4     -13.541   0.425  15.731  0.00  0.00    +0.000 N 
ATOM     34  H   UNK A   4     -13.812   0.025  16.652  0.00  0.00    +0.000 HD
ATOM     35  O   UNK A   6     -12.298   0.119  13.858  0.00  0.00    +0.000 OA
BRANCH  33  36
ATOM     36  C   UNK A   4     -14.231   1.633  15.263  0.00  0.00    +0.000 C 
BRANCH  36  37
ATOM     37  C   UNK A   4     -13.580   2.768  16.052  0.00  0.00    +0.000 C 
ATOM     38  O   UNK A   4     -13.718   2.869  17.282  0.00  0.00    +0.000 OA
ATOM     39  N   VAL A   5     -12.797   3.562  15.333  0.00  0.00    +0.000 N 
ATOM     40  H   VAL A   5     -12.747   3.407  14.306  0.00  0.00    +0.000 HD
BRANCH  39  41
ATOM     41  CA  VAL A   5     -12.008   4.635  15.906  0.00  0.00    +0.000 C 
BRANCH  41  42
ATOM     42  C   VAL A   5     -12.722   5.970  15.948  0.00  0.00    +0.000 C 
ATOM     43  N   UNK A   6     -12.779   6.570  17.143  0.00  0.00    +0.000 N 
ATOM     44  H   UNK A   6     -12.331   6.101  17.956  0.00  0.00    +0.000 HD
ATOM     45  O   VAL A   5     -13.196   6.452  14.909  0.00  0.00    +0.000 OA
BRANCH  43  46
ATOM     46  C   UNK A   6     -13.442   7.853  17.355  0.00  0.00    +0.000 C 
BRANCH  46  47
ATOM     47  C   UNK A   6     -12.510   8.832  18.106  0.00  0.00    +0.000 C 
ATOM     48  O   UNK A   6     -11.782   8.423  19.003  0.00  0.00    +0.000 OA
ENDBRANCH  46  47
BRANCH  46  49
ATOM     49  C   UNK A   6     -14.693   7.678  18.246  0.00  0.00    +0.000 C 
BRANCH  49  50
ATOM     50  C   UNK A   6     -15.688   6.661  17.774  0.00  0.00    +0.000 A 
ATOM     51  N   UNK A   6     -15.478   5.306  17.891  0.00  0.00    +0.000 NA
ATOM     52  C   UNK A   6     -16.549   4.653  17.474  0.00  0.00    +0.000 A 
ATOM     53  N   UNK A   6     -17.452   5.538  17.093  0.00  0.00    +0.000 NA
ATOM     54  C   UNK A   6     -16.938   6.802  17.268  0.00  0.00    +0.000 A 
ENDBRANCH  49  50
ENDBRANCH  46  49
ENDBRANCH  43  46
ENDBRANCH  41  42
BRANCH  41  55
ATOM     55  CB  VAL A   5     -10.673   4.762  15.128  0.00  0.00    +0.000 C 
ATOM     56  CG2 VAL A   5      -9.733   5.726  15.833  0.00  0.00    +0.000 C 
ATOM     57  CG1 VAL A   5     -10.031   3.400  14.997  0.00  0.00    +0.000 C 
ENDBRANCH  41  55
ENDBRANCH  39  41
ENDBRANCH  36  37
BRANCH  36  58
ATOM     58  C   UNK A   4     -15.736   1.550  15.508  0.00  0.00    +0.000 C 
BRANCH  58  59
ATOM     59  C   UNK A   4     -16.375   0.498  14.599  0.00  0.00    +0.000 C 
ATOM     60  C   UNK A   4     -17.055  -0.580  15.404  0.00  0.00    +0.000 C 
ATOM     61  C   UNK A   4     -17.360   1.181  13.663  0.00  0.00    +0.000 C 
ENDBRANCH  58  59
ENDBRANCH  36  58
ENDBRANCH  33  36
ENDBRANCH  31  32
BRANCH  31  62
ATOM     62  N   UNK A   6     -12.171  -2.577  14.914  0.00  0.00    +0.000 N 
ATOM     63  C   LEU A   2     -12.801  -3.632  15.412  0.00  0.00    +0.000 C 
ATOM     64  O   LEU A   2     -13.211  -3.678  16.575  0.00  0.00    +0.000 OA
ATOM     65  H   UNK A   6     -11.848  -2.604  13.926  0.00  0.00    +0.000 HD
BRANCH  63  66
ATOM     66  CA  LEU A   2     -13.033  -4.804  14.455  0.00  0.00    +0.000 C 
BRANCH  66  67
ATOM     67  N   LEU A   2     -12.650  -6.043  15.125  0.00  0.00    +0.000 N 
ATOM     68  H   LEU A   2     -13.349  -6.509  15.738  0.00  0.00    +0.000 HD
ATOM     69  C   GLU A   1     -11.458  -6.603  14.992  0.00  0.00    +0.000 C 
ATOM     70  O   GLU A   1     -10.618  -6.196  14.206  0.00  0.00    +0.000 OA
BRANCH  69  71
ATOM     71  CA  GLU A   1     -11.225  -7.884  15.799  0.00  0.00    +0.000 C 
BRANCH  71  72
ATOM     72  N   GLU A   1     -10.721  -8.934  14.934  0.00  0.00    +0.000 NA
ATOM     73  H   GLU A   1     -10.072  -8.680  14.162  0.00  0.00    +0.000 HD
ENDBRANCH  71  72
BRANCH  71  74
ATOM     74  CB  GLU A   1     -10.278  -7.644  16.969  0.00  0.00    +0.000 C 
BRANCH  74  75
ATOM     75  CG  GLU A   1     -10.786  -6.639  17.999  0.00  0.00    +0.000 C 
BRANCH  75  76
ATOM     76  CD  GLU A   1      -9.914  -6.611  19.249  0.00  0.00    +0.000 C 
ATOM     77  OE2 GLU A   1      -9.768  -5.533  19.841  0.00  0.00    +0.000 OA
ATOM     78  OE1 GLU A   1      -9.385  -7.678  19.645  0.00  0.00    +0.000 OA
ENDBRANCH  75  76
ENDBRANCH  74  75
ENDBRANCH  71  74
ENDBRANCH  69  71
ENDBRANCH  66  67
BRANCH  66  79
ATOM     79  CB  LEU A   2     -14.525  -4.867  14.089  0.00  0.00    +0.000 C 
BRANCH  79  80
ATOM     80  CG  LEU A   2     -15.290  -3.598  13.729  0.00  0.00    +0.000 C 
ATOM     81  CD2 LEU A   2     -16.730  -3.981  13.518  0.00  0.00    +0.000 C 
ATOM     82  CD1 LEU A   2     -14.734  -2.939  12.482  0.00  0.00    +0.000 C 
ENDBRANCH  79  80
ENDBRANCH  66  79
ENDBRANCH  63  66
ENDBRANCH  31  62
ENDBRANCH  30  31
ENDBRANCH  29  30
ENDBRANCH  14  25
BRANCH   1  84
ATOM     83  C   UNK A   3     -11.868   0.559  10.348  0.00  0.00    +0.000 C 
ATOM     84  N   UNK A   4     -11.301  -0.453  10.996  0.00  0.00    +0.000 N 
ATOM     85  H   UNK A   4     -11.517  -0.567  12.007  0.00  0.00    +0.000 HD
ATOM     86  O   UNK A   3     -11.631   0.827   9.165  0.00  0.00    +0.000 OA
BRANCH  83  87
ATOM     87  C   UNK A   3     -12.775   1.467  11.183  0.00  0.00    +0.000 C 
BRANCH  87  90
ATOM     88  C   LEU A   2     -12.593   3.888  11.311  0.00  0.00    +0.000 C 
ATOM     89  O   LEU A   2     -12.701   3.878  12.532  0.00  0.00    +0.000 OA
ATOM     90  N   UNK A   3     -12.726   2.792  10.570  0.00  0.00    +0.000 N 
ATOM     91  H   UNK A   3     -12.796   2.880   9.536  0.00  0.00    +0.000 HD
BRANCH  88  92
ATOM     92  CA  LEU A   2     -12.423   5.206  10.555  0.00  0.00    +0.000 C 
BRANCH  92  94
ATOM     93  C   GLU A   1     -12.921   7.578  10.839  0.00  0.00    +0.000 C 
ATOM     94  N   LEU A   2     -12.716   6.378  11.382  0.00  0.00    +0.000 N 
ATOM     95  H   LEU A   2     -12.765   6.272  12.415  0.00  0.00    +0.000 HD
ATOM     96  O   GLU A   1     -12.877   7.769   9.620  0.00  0.00    +0.000 OA
BRANCH  93  97
ATOM     97  CA  GLU A   1     -13.255   8.729  11.804  0.00  0.00    +0.000 C 
BRANCH  97  98
ATOM     98  CB  GLU A   1     -11.966   9.452  12.336  0.00  0.00    +0.000 C 
ATOM     99  CG2 GLU A   1     -11.156   8.555  13.272  0.00  0.00    +0.000 C 
BRANCH  98 100
ATOM    100  CG1 GLU A   1     -11.102   9.904  11.157  0.00  0.00    +0.000 C 
ATOM    101  CD1 GLU A   1      -9.890  10.691  11.550  0.00  0.00    +0.000 C 
ENDBRANCH  98 100
ENDBRANCH  97  98
BRANCH  97 102
ATOM    102  N   GLU A   1     -14.128   8.279  12.887  0.00  0.00    +0.000 NA
ATOM    103  H   GLU A   1     -13.778   7.597  13.590  0.00  0.00    +0.000 HD
ENDBRANCH  97 102
ENDBRANCH  93  97
ENDBRANCH  92  94
BRANCH  92 104
ATOM    104  CB  LEU A   2     -10.995   5.291   9.991  0.00  0.00    +0.000 C 
BRANCH 104 105
ATOM    105  CG  LEU A   2      -9.876   5.386  11.056  0.00  0.00    +0.000 C 
BRANCH 105 106
ATOM    106  CD  LEU A   2      -9.178   4.063  11.328  0.00  0.00    +0.000 C 
ATOM    107  NE2 LEU A   2      -7.874   4.123  11.585  0.00  0.00    +0.000 N 
ATOM    108 HE21 LEU A   2      -7.340   3.250  11.771  0.00  0.00    +0.000 HD
ATOM    109 HE22 LEU A   2      -7.389   5.043  11.600  0.00  0.00    +0.000 HD
ATOM    110  OE1 LEU A   2      -9.797   2.997  11.299  0.00  0.00    +0.000 OA
ENDBRANCH 105 106
ENDBRANCH 104 105
ENDBRANCH  92 104
ENDBRANCH  88  92
ENDBRANCH  87  90
BRANCH  87 111
ATOM    111  C   UNK A   3     -14.211   0.911  11.388  0.00  0.00    +0.000 C 
BRANCH 111 112
ATOM    112  C   UNK A   3     -14.912   0.439  10.134  0.00  0.00    +0.000 A 
ATOM    113  C   UNK A   3     -16.048   1.098   9.681  0.00  0.00    +0.000 A 
ATOM    114  C   UNK A   3     -16.775   0.614   8.595  0.00  0.00    +0.000 A 
ATOM    115  C   UNK A   3     -16.364  -0.530   7.950  0.00  0.00    +0.000 A 
ATOM    116  C   UNK A   3     -15.224  -1.202   8.381  0.00  0.00    +0.000 A 
ATOM    117  C   UNK A   3     -14.508  -0.715   9.469  0.00  0.00    +0.000 A 
ENDBRANCH 111 112
ENDBRANCH  87 111
ENDBRANCH  83  87
ENDBRANCH   1  84
BRANCH   9 118
ATOM    118  C   UNK A   6      -7.480  -8.620  12.529  0.00  0.00    +0.000 C 
ATOM    119  O   UNK A   6      -8.614  -8.937  12.907  0.00  0.00    +0.000 OA
ENDBRANCH   9 118
BRANCH   5 120
ATOM    120  CB  VAL A   5     -10.504  -6.109  10.471  0.00  0.00    +0.000 C 
BRANCH 120 121
ATOM    121  CG  VAL A   5     -11.964  -5.835  10.165  0.00  0.00    +0.000 A 
ATOM    122  CD2 VAL A   5     -12.966  -6.521  10.839  0.00  0.00    +0.000 A 
ATOM    123  CE2 VAL A   5     -14.299  -6.331  10.512  0.00  0.00    +0.000 A 
ATOM    124  CZ  VAL A   5     -14.649  -5.442   9.498  0.00  0.00    +0.000 A 
ATOM    125  CE1 VAL A   5     -13.664  -4.750   8.823  0.00  0.00    +0.000 A 
ATOM    126  CD1 VAL A   5     -12.326  -4.948   9.160  0.00  0.00    +0.000 A 
ENDBRANCH 120 121
ENDBRANCH   5 120
TORSDOF 42
REMARK  Name = ../refined-set-2016/1i9q/1i9q_pocket.pdb
REMARK  155 active torsions:
REMARK  status: ('A' for Active; 'I' for Inactive)
REMARK    1  A    between atoms: _1  and  _3
REMARK    2  A    between atoms: _3  and  _4
REMARK    3  A    between atoms: _3  and  _6
REMARK    4  A    between atoms: _6  and  _7
REMARK    5  A    between atoms: _17  and  _19
REMARK    6  A    between atoms: _19  and  _20
REMARK    7  A    between atoms: _19  and  _22
REMARK    8  A    between atoms: _22  and  _23
REMARK    9  A    between atoms: _28  and  _29
REMARK   10  A    between atoms: _31  and  _33
REMARK   11  A    between atoms: _33  and  _34
REMARK   12  A    between atoms: _33  and  _36
REMARK   13  A    between atoms: _36  and  _37
REMARK   14  A    between atoms: _40  and  _41
REMARK   15  A    between atoms: _46  and  _48
REMARK   16  A    between atoms: _48  and  _49
REMARK   17  A    between atoms: _48  and  _51
REMARK   18  A    between atoms: _51  and  _52
REMARK   19  A    between atoms: _57  and  _59
REMARK   20  A    between atoms: _59  and  _60
REMARK   21  A    between atoms: _59  and  _62
REMARK   22  A    between atoms: _62  and  _63
REMARK   23  A    between atoms: _68  and  _70
REMARK   24  A    between atoms: _70  and  _71
REMARK   25  A    between atoms: _74  and  _76
REMARK   26  A    between atoms: _76  and  _77
REMARK   27  A    between atoms: _76  and  _79
REMARK   28  A    between atoms: _79  and  _80
REMARK   29  A    between atoms: _85  and  _87
REMARK   30  A    between atoms: _87  and  _88
REMARK   31  A    between atoms: _87  and  _90
REMARK   32  A    between atoms: _90  and  _91
REMARK   33  A    between atoms: _94  and  _96
REMARK   34  A    between atoms: _96  and  _97
REMARK   35  A    between atoms: _96  and  _99
REMARK   36  A    between atoms: _99  and  _100
REMARK   37  A    between atoms: _100  and  _101
REMARK   38  A    between atoms: _106  and  _108
REMARK   39  A    between atoms: _108  and  _109
REMARK   40  A    between atoms: _108  and  _111
REMARK   41  A    between atoms: _111  and  _112
REMARK   42  A    between atoms: _118  and  _120
REMARK   43  A    between atoms: _131  and  _134
REMARK   44  A    between atoms: _134  and  _135
REMARK   45  A    between atoms: _143  and  _144
REMARK   46  A    between atoms: _152  and  _154
REMARK   47  A    between atoms: _154  and  _155
REMARK   48  A    between atoms: _154  and  _157
REMARK   49  A    between atoms: _157  and  _158
REMARK   50  A    between atoms: _158  and  _159
REMARK   51  A    between atoms: _162  and  _164
REMARK   52  A    between atoms: _164  and  _165
REMARK   53  A    between atoms: _164  and  _167
REMARK   54  A    between atoms: _167  and  _168
REMARK   55  A    between atoms: _173  and  _175
REMARK   56  A    between atoms: _175  and  _176
REMARK   57  A    between atoms: _175  and  _178
REMARK   58  A    between atoms: _178  and  _179
REMARK   59  A    between atoms: _179  and  _180
REMARK   60  A    between atoms: _183  and  _185
REMARK   61  A    between atoms: _185  and  _186
REMARK   62  A    between atoms: _185  and  _188
REMARK   63  A    between atoms: _188  and  _189
REMARK   64  A    between atoms: _192  and  _194
REMARK   65  A    between atoms: _194  and  _195
REMARK   66  A    between atoms: _194  and  _197
REMARK   67  A    between atoms: _197  and  _198
REMARK   68  A    between atoms: _199  and  ZN_433
REMARK   69  A    between atoms: _203  and  _205
REMARK   70  A    between atoms: _205  and  _206
REMARK   71  A    between atoms: _205  and  _208
REMARK   72  A    between atoms: _208  and  _209
REMARK   73  A    between atoms: _212  and  _214
REMARK   74  A    between atoms: _214  and  _215
REMARK   75  A    between atoms: _214  and  _217
REMARK   76  A    between atoms: _220  and  _222
REMARK   77  A    between atoms: _222  and  _223
REMARK   78  A    between atoms: _222  and  _225
REMARK   79  A    between atoms: _225  and  _226
REMARK   80  A    between atoms: _231  and  _233
REMARK   81  A    between atoms: _233  and  _234
REMARK   82  A    between atoms: _233  and  _236
REMARK   83  A    between atoms: _239  and  _241
REMARK   84  A    between atoms: _241  and  _242
REMARK   85  A    between atoms: _244  and  _246
REMARK   86  A    between atoms: _246  and  _247
REMARK   87  A    between atoms: _250  and  _252
REMARK   88  A    between atoms: _252  and  _253
REMARK   89  A    between atoms: _252  and  _255
REMARK   90  A    between atoms: _258  and  _260
REMARK   91  A    between atoms: _260  and  _261
REMARK   92  A    between atoms: _260  and  _263
REMARK   93  A    between atoms: _263  and  _264
REMARK   94  A    between atoms: _264  and  _265
REMARK   95  A    between atoms: _270  and  _272
REMARK   96  A    between atoms: _272  and  _273
REMARK   97  A    between atoms: _272  and  _275
REMARK   98  A    between atoms: _275  and  _276
REMARK   99  A    between atoms: _279  and  _281
REMARK  100  A    between atoms: _281  and  _282
REMARK  101  A    between atoms: _285  and  _287
REMARK  102  A    between atoms: _287  and  _288
REMARK  103  A    between atoms: _287  and  _290
REMARK  104  A    between atoms: _293  and  _295
REMARK  105  A    between atoms: _295  and  _296
REMARK  106  A    between atoms: _295  and  _298
REMARK  107  A    between atoms: _298  and  _299
REMARK  108  A    between atoms: _302  and  _304
REMARK  109  A    between atoms: _304  and  _305
REMARK  110  A    between atoms: _307  and  _309
REMARK  111  A    between atoms: _309  and  _310
REMARK  112  A    between atoms: _309  and  _312
REMARK  113  A    between atoms: _312  and  _313
REMARK  114  A    between atoms: _315  and  _317
REMARK  115  A    between atoms: _317  and  _318
REMARK  116  A    between atoms: _317  and  _320
REMARK  117  A    between atoms: _320  and  _321
REMARK  118  A    between atoms: _324  and  _326
REMARK  119  A    between atoms: _326  and  _327
REMARK  120  A    between atoms: _326  and  _329
REMARK  121  A    between atoms: _329  and  _330
REMARK  122  A    between atoms: _333  and  _335
REMARK  123  A    between atoms: _335  and  _336
REMARK  124  A    between atoms: _335  and  _338
REMARK  125  A    between atoms: _338  and  _339
REMARK  126  A    between atoms: _343  and  _344
REMARK  127  A    between atoms: _350  and  _351
REMARK  128  A    between atoms: _356  and  _358
REMARK  129  A    between atoms: _358  and  _359
REMARK  130  A    between atoms: _358  and  _361
REMARK  131  A    between atoms: _361  and  _362
REMARK  132  A    between atoms: _365  and  _367
REMARK  133  A    between atoms: _367  and  _368
REMARK  134  A    between atoms: _367  and  _370
REMARK  135  A    between atoms: _370  and  _371
REMARK  136  A    between atoms: _374  and  _376
REMARK  137  A    between atoms: _376  and  _377
REMARK  138  A    between atoms: _376  and  _379
REMARK  139  A    between atoms: _381  and  _383
REMARK  140  A    between atoms: _383  and  _384
REMARK  141  A    between atoms: _383  and  _386
REMARK  142  A    between atoms: _389  and  _391
REMARK  143  A    between atoms: _391  and  _392
REMARK  144  A    between atoms: _391  and  _394
REMARK  145  A    between atoms: _394  and  _395
REMARK  146  A    between atoms: _405  and  _407
REMARK  147  A    between atoms: _407  and  _408
REMARK  148  A    between atoms: _407  and  _410
REMARK  149  A    between atoms: _410  and  _411
REMARK  150  A    between atoms: _416  and  _418
REMARK  151  A    between atoms: _418  and  _419
REMARK  152  A    between atoms: _418  and  _421
REMARK  153  A    between atoms: _421  and  _422
REMARK  154  A    between atoms: _422  and  _423
REMARK  155  A    between atoms: _423  and  _424
REMARK                            x       y       z     vdW  Elec       q    Type
REMARK                         _______ _______ _______ _____ _____    ______ ____
ROOT
ATOM      1  C   GLU A   1      -6.090  -8.528  21.123  0.00  0.00    +0.238 C 
ATOM      2  O   GLU A   1      -5.244  -8.993  21.883  0.00  0.00    -0.274 OA
ATOM      3  N   HIS A   2      -7.313  -8.182  21.525  0.00  0.00    -0.298 N 
ATOM      4  H   HIS A   2      -7.966  -7.730  20.854  0.00  0.00    +0.150 HD
ENDROOT
BRANCH   1   5
ATOM      5  CA  GLU A   1      -5.773  -8.289  19.656  0.00  0.00    +0.145 C 
BRANCH   5   6
ATOM      6  N   GLU A   1      -6.831  -8.919  18.884  0.00  0.00    -0.238 NA
ATOM      7  H   GLU A   1      -7.684  -8.369  18.657  0.00  0.00    +0.142 HD
ENDBRANCH   5   6
BRANCH   5   8
ATOM      8  CB  GLU A   1      -5.703  -6.804  19.319  0.00  0.00    +0.038 C 
BRANCH   8   9
ATOM      9  CG  GLU A   1      -5.358  -6.588  17.848  0.00  0.00    +0.116 C 
BRANCH   9  10
ATOM     10  CD  GLU A   1      -4.601  -5.308  17.601  0.00  0.00    +0.365 C 
ATOM     11  OE2 GLU A   1      -5.157  -4.212  17.833  0.00  0.00    -0.246 OA
ATOM     12  OE1 GLU A   1      -3.441  -5.399  17.169  0.00  0.00    -0.246 OA
ENDBRANCH   9  10
ENDBRANCH   8   9
ENDBRANCH   5   8
ENDBRANCH   1   5
BRANCH   3  13
ATOM     13  CA  HIS A   2      -7.744  -8.429  22.890  0.00  0.00    +0.143 C 
BRANCH  13  14
ATOM     14  C   HIS A   2      -8.130  -9.886  22.932  0.00  0.00    +0.227 C 
ATOM     15  O   HIS A   2      -8.434 -10.486  21.892  0.00  0.00    -0.286 OA
ENDBRANCH  13  14
BRANCH  13  16
ATOM     16  CB  HIS A   2      -8.955  -7.589  23.258  0.00  0.00    +0.075 C 
BRANCH  16  17
ATOM     17  CG  HIS A   2      -8.631  -6.156  23.502  0.00  0.00    +0.082 A 
ATOM     18  CD2 HIS A   2      -8.246  -5.510  24.628  0.00  0.00    +0.115 A 
ATOM     19  NE2 HIS A   2      -8.030  -4.200  24.286  0.00  0.00    -0.221 NA
ATOM     20  CE1 HIS A   2      -8.273  -4.044  22.997  0.00  0.00    +0.199 A 
ATOM     21  ND1 HIS A   2      -8.640  -5.212  22.499  0.00  0.00    -0.227 NA
ENDBRANCH  16  17
ENDBRANCH  13  16
ENDBRANCH   3  13
TORSDOF 9
REMARK  Name = ../refined-set-2016/1i9q/1i9q_pocket.pdb
REMARK  155 active torsions:
REMARK  status: ('A' for Active; 'I' for Inactive)
REMARK    1  A    between atoms: _1  and  _3
REMARK    2  A    between atoms: _3  and  _4
REMARK    3  A    between atoms: _3  and  _6
REMARK    4  A    between atoms: _6  and  _7
REMARK    5  A    between atoms: _17  and  _19
REMARK    6  A    between atoms: _19  and  _20
REMARK    7  A    between atoms: _19  and  _22
REMARK    8  A    between atoms: _22  and  _23
REMARK    9  A    between atoms: _28  and  _29
REMARK   10  A    between atoms: _31  and  _33
REMARK   11  A    between atoms: _33  and  _34
REMARK   12  A    between atoms: _33  and  _36
REMARK   13  A    between atoms: _36  and  _37
REMARK   14  A    between atoms: _40  and  _41
REMARK   15  A    between atoms: _46  and  _48
REMARK   16  A    between atoms: _48  and  _49
REMARK   17  A    between atoms: _48  and  _51
REMARK   18  A    between atoms: _51  and  _52
REMARK   19  A    between atoms: _57  and  _59
REMARK   20  A    between atoms: _59  and  _60
REMARK   21  A    between atoms: _59  and  _62
REMARK   22  A    between atoms: _62  and  _63
REMARK   23  A    between atoms: _68  and  _70
REMARK   24  A    between atoms: _70  and  _71
REMARK   25  A    between atoms: _74  and  _76
REMARK   26  A    between atoms: _76  and  _77
REMARK   27  A    between atoms: _76  and  _79
REMARK   28  A    between atoms: _79  and  _80
REMARK   29  A    between atoms: _85  and  _87
REMARK   30  A    between atoms: _87  and  _88
REMARK   31  A    between atoms: _87  and  _90
REMARK   32  A    between atoms: _90  and  _91
REMARK   33  A    between atoms: _94  and  _96
REMARK   34  A    between atoms: _96  and  _97
REMARK   35  A    between atoms: _96  and  _99
REMARK   36  A    between atoms: _99  and  _100
REMARK   37  A    between atoms: _100  and  _101
REMARK   38  A    between atoms: _106  and  _108
REMARK   39  A    between atoms: _108  and  _109
REMARK   40  A    between atoms: _108  and  _111
REMARK   41  A    between atoms: _111  and  _112
REMARK   42  A    between atoms: _118  and  _120
REMARK   43  A    between atoms: _131  and  _134
REMARK   44  A    between atoms: _134  and  _135
REMARK   45  A    between atoms: _143  and  _144
REMARK   46  A    between atoms: _152  and  _154
REMARK   47  A    between atoms: _154  and  _155
REMARK   48  A    between atoms: _154  and  _157
REMARK   49  A    between atoms: _157  and  _158
REMARK   50  A    between atoms: _158  and  _159
REMARK   51  A    between atoms: _162  and  _164
REMARK   52  A    between atoms: _164  and  _165
REMARK   53  A    between atoms: _164  and  _167
REMARK   54  A    between atoms: _167  and  _168
REMARK   55  A    between atoms: _173  and  _175
REMARK   56  A    between atoms: _175  and  _176
REMARK   57  A    between atoms: _175  and  _178
REMARK   58  A    between atoms: _178  and  _179
REMARK   59  A    between atoms: _179  and  _180
REMARK   60  A    between atoms: _183  and  _185
REMARK   61  A    between atoms: _185  and  _186
REMARK   62  A    between atoms: _185  and  _188
REMARK   63  A    between atoms: _188  and  _189
REMARK   64  A    between atoms: _192  and  _194
REMARK   65  A    between atoms: _194  and  _195
REMARK   66  A    between atoms: _194  and  _197
REMARK   67  A    between atoms: _197  and  _198
REMARK   68  A    between atoms: _199  and  ZN_433
REMARK   69  A    between atoms: _203  and  _205
REMARK   70  A    between atoms: _205  and  _206
REMARK   71  A    between atoms: _205  and  _208
REMARK   72  A    between atoms: _208  and  _209
REMARK   73  A    between atoms: _212  and  _214
REMARK   74  A    between atoms: _214  and  _215
REMARK   75  A    between atoms: _214  and  _217
REMARK   76  A    between atoms: _220  and  _222
REMARK   77  A    between atoms: _222  and  _223
REMARK   78  A    between atoms: _222  and  _225
REMARK   79  A    between atoms: _225  and  _226
REMARK   80  A    between atoms: _231  and  _233
REMARK   81  A    between atoms: _233  and  _234
REMARK   82  A    between atoms: _233  and  _236
REMARK   83  A    between atoms: _239  and  _241
REMARK   84  A    between atoms: _241  and  _242
REMARK   85  A    between atoms: _244  and  _246
REMARK   86  A    between atoms: _246  and  _247
REMARK   87  A    between atoms: _250  and  _252
REMARK   88  A    between atoms: _252  and  _253
REMARK   89  A    between atoms: _252  and  _255
REMARK   90  A    between atoms: _258  and  _260
REMARK   91  A    between atoms: _260  and  _261
REMARK   92  A    between atoms: _260  and  _263
REMARK   93  A    between atoms: _263  and  _264
REMARK   94  A    between atoms: _264  and  _265
REMARK   95  A    between atoms: _270  and  _272
REMARK   96  A    between atoms: _272  and  _273
REMARK   97  A    between atoms: _272  and  _275
REMARK   98  A    between atoms: _275  and  _276
REMARK   99  A    between atoms: _279  and  _281
REMARK  100  A    between atoms: _281  and  _282
REMARK  101  A    between atoms: _285  and  _287
REMARK  102  A    between atoms: _287  and  _288
REMARK  103  A    between atoms: _287  and  _290
REMARK  104  A    between atoms: _293  and  _295
REMARK  105  A    between atoms: _295  and  _296
REMARK  106  A    between atoms: _295  and  _298
REMARK  107  A    between atoms: _298  and  _299
REMARK  108  A    between atoms: _302  and  _304
REMARK  109  A    between atoms: _304  and  _305
REMARK  110  A    between atoms: _307  and  _309
REMARK  111  A    between atoms: _309  and  _310
REMARK  112  A    between atoms: _309  and  _312
REMARK  113  A    between atoms: _312  and  _313
REMARK  114  A    between atoms: _315  and  _317
REMARK  115  A    between atoms: _317  and  _318
REMARK  116  A    between atoms: _317  and  _320
REMARK  117  A    between atoms: _320  and  _321
REMARK  118  A    between atoms: _324  and  _326
REMARK  119  A    between atoms: _326  and  _327
REMARK  120  A    between atoms: _326  and  _329
REMARK  121  A    between atoms: _329  and  _330
REMARK  122  A    between atoms: _333  and  _335
REMARK  123  A    between atoms: _335  and  _336
REMARK  124  A    between atoms: _335  and  _338
REMARK  125  A    between atoms: _338  and  _339
REMARK  126  A    between atoms: _343  and  _344
REMARK  127  A    between atoms: _350  and  _351
REMARK  128  A    between atoms: _356  and  _358
REMARK  129  A    between atoms: _358  and  _359
REMARK  130  A    between atoms: _358  and  _361
REMARK  131  A    between atoms: _361  and  _362
REMARK  132  A    between atoms: _365  and  _367
REMARK  133  A    between atoms: _367  and  _368
REMARK  134  A    between atoms: _367  and  _370
REMARK  135  A    between atoms: _370  and  _371
REMARK  136  A    between atoms: _374  and  _376
REMARK  137  A    between atoms: _376  and  _377
REMARK  138  A    between atoms: _376  and  _379
REMARK  139  A    between atoms: _381  and  _383
REMARK  140  A    between atoms: _383  and  _384
REMARK  141  A    between atoms: _383  and  _386
REMARK  142  A    between atoms: _389  and  _391
REMARK  143  A    between atoms: _391  and  _392
REMARK  144  A    between atoms: _391  and  _394
REMARK  145  A    between atoms: _394  and  _395
REMARK  146  A    between atoms: _405  and  _407
REMARK  147  A    between atoms: _407  and  _408
REMARK  148  A    between atoms: _407  and  _410
REMARK  149  A    between atoms: _410  and  _411
REMARK  150  A    between atoms: _416  and  _418
REMARK  151  A    between atoms: _418  and  _419
REMARK  152  A    between atoms: _418  and  _421
REMARK  153  A    between atoms: _421  and  _422
REMARK  154  A    between atoms: _422  and  _423
REMARK  155  A    between atoms: _423  and  _424
REMARK                            x       y       z     vdW  Elec       q    Type
REMARK                         _______ _______ _______ _____ _____    ______ ____
ROOT
ATOM      1  C   VAL A   1      -6.267  14.382  15.864  0.00  0.00    +0.238 C 
ATOM      2  O   VAL A   1      -5.834  13.750  16.819  0.00  0.00    -0.274 OA
ATOM      3  N   GLY A   2      -5.533  15.235  15.158  0.00  0.00    -0.297 N 
ATOM      4  H   GLY A   2      -5.953  15.723  14.341  0.00  0.00    +0.150 HD
ENDROOT
BRANCH   1   5
ATOM      5  CA  VAL A   1      -7.687  14.193  15.419  0.00  0.00    +0.145 C 
BRANCH   5   6
ATOM      6  CB  VAL A   1      -7.689  13.061  14.373  0.00  0.00    +0.025 C 
ATOM      7  CG2 VAL A   1      -7.601  11.702  15.089  0.00  0.00    +0.002 C 
ATOM      8  CG1 VAL A   1      -8.908  13.135  13.515  0.00  0.00    +0.002 C 
ENDBRANCH   5   6
BRANCH   5   9
ATOM      9  N   VAL A   1      -8.288  15.436  14.941  0.00  0.00    -0.238 NA
ATOM     10  H   VAL A   1      -8.635  15.493  13.962  0.00  0.00    +0.142 HD
ENDBRANCH   5   9
ENDBRANCH   1   5
BRANCH   3  11
ATOM     11  CA  GLY A   2      -4.146  15.492  15.518  0.00  0.00    +0.163 C 
BRANCH  11  12
ATOM     12  C   GLY A   2      -3.969  15.950  16.960  0.00  0.00    +0.229 C 
ATOM     13  O   GLY A   2      -3.048  15.509  17.649  0.00  0.00    -0.286 OA
ENDBRANCH  11  12
ENDBRANCH   3  11
TORSDOF 5
REMARK  Name = ../refined-set-2016/1i9q/1i9q_pocket.pdb
REMARK  155 active torsions:
REMARK  status: ('A' for Active; 'I' for Inactive)
REMARK    1  A    between atoms: _1  and  _3
REMARK    2  A    between atoms: _3  and  _4
REMARK    3  A    between atoms: _3  and  _6
REMARK    4  A    between atoms: _6  and  _7
REMARK    5  A    between atoms: _17  and  _19
REMARK    6  A    between atoms: _19  and  _20
REMARK    7  A    between atoms: _19  and  _22
REMARK    8  A    between atoms: _22  and  _23
REMARK    9  A    between atoms: _28  and  _29
REMARK   10  A    between atoms: _31  and  _33
REMARK   11  A    between atoms: _33  and  _34
REMARK   12  A    between atoms: _33  and  _36
REMARK   13  A    between atoms: _36  and  _37
REMARK   14  A    between atoms: _40  and  _41
REMARK   15  A    between atoms: _46  and  _48
REMARK   16  A    between atoms: _48  and  _49
REMARK   17  A    between atoms: _48  and  _51
REMARK   18  A    between atoms: _51  and  _52
REMARK   19  A    between atoms: _57  and  _59
REMARK   20  A    between atoms: _59  and  _60
REMARK   21  A    between atoms: _59  and  _62
REMARK   22  A    between atoms: _62  and  _63
REMARK   23  A    between atoms: _68  and  _70
REMARK   24  A    between atoms: _70  and  _71
REMARK   25  A    between atoms: _74  and  _76
REMARK   26  A    between atoms: _76  and  _77
REMARK   27  A    between atoms: _76  and  _79
REMARK   28  A    between atoms: _79  and  _80
REMARK   29  A    between atoms: _85  and  _87
REMARK   30  A    between atoms: _87  and  _88
REMARK   31  A    between atoms: _87  and  _90
REMARK   32  A    between atoms: _90  and  _91
REMARK   33  A    between atoms: _94  and  _96
REMARK   34  A    between atoms: _96  and  _97
REMARK   35  A    between atoms: _96  and  _99
REMARK   36  A    between atoms: _99  and  _100
REMARK   37  A    between atoms: _100  and  _101
REMARK   38  A    between atoms: _106  and  _108
REMARK   39  A    between atoms: _108  and  _109
REMARK   40  A    between atoms: _108  and  _111
REMARK   41  A    between atoms: _111  and  _112
REMARK   42  A    between atoms: _118  and  _120
REMARK   43  A    between atoms: _131  and  _134
REMARK   44  A    between atoms: _134  and  _135
REMARK   45  A    between atoms: _143  and  _144
REMARK   46  A    between atoms: _152  and  _154
REMARK   47  A    between atoms: _154  and  _155
REMARK   48  A    between atoms: _154  and  _157
REMARK   49  A    between atoms: _157  and  _158
REMARK   50  A    between atoms: _158  and  _159
REMARK   51  A    between atoms: _162  and  _164
REMARK   52  A    between atoms: _164  and  _165
REMARK   53  A    between atoms: _164  and  _167
REMARK   54  A    between atoms: _167  and  _168
REMARK   55  A    between atoms: _173  and  _175
REMARK   56  A    between atoms: _175  and  _176
REMARK   57  A    between atoms: _175  and  _178
REMARK   58  A    between atoms: _178  and  _179
REMARK   59  A    between atoms: _179  and  _180
REMARK   60  A    between atoms: _183  and  _185
REMARK   61  A    between atoms: _185  and  _186
REMARK   62  A    between atoms: _185  and  _188
REMARK   63  A    between atoms: _188  and  _189
REMARK   64  A    between atoms: _192  and  _194
REMARK   65  A    between atoms: _194  and  _195
REMARK   66  A    between atoms: _194  and  _197
REMARK   67  A    between atoms: _197  and  _198
REMARK   68  A    between atoms: _199  and  ZN_433
REMARK   69  A    between atoms: _203  and  _205
REMARK   70  A    between atoms: _205  and  _206
REMARK   71  A    between atoms: _205  and  _208
REMARK   72  A    between atoms: _208  and  _209
REMARK   73  A    between atoms: _212  and  _214
REMARK   74  A    between atoms: _214  and  _215
REMARK   75  A    between atoms: _214  and  _217
REMARK   76  A    between atoms: _220  and  _222
REMARK   77  A    between atoms: _222  and  _223
REMARK   78  A    between atoms: _222  and  _225
REMARK   79  A    between atoms: _225  and  _226
REMARK   80  A    between atoms: _231  and  _233
REMARK   81  A    between atoms: _233  and  _234
REMARK   82  A    between atoms: _233  and  _236
REMARK   83  A    between atoms: _239  and  _241
REMARK   84  A    between atoms: _241  and  _242
REMARK   85  A    between atoms: _244  and  _246
REMARK   86  A    between atoms: _246  and  _247
REMARK   87  A    between atoms: _250  and  _252
REMARK   88  A    between atoms: _252  and  _253
REMARK   89  A    between atoms: _252  and  _255
REMARK   90  A    between atoms: _258  and  _260
REMARK   91  A    between atoms: _260  and  _261
REMARK   92  A    between atoms: _260  and  _263
REMARK   93  A    between atoms: _263  and  _264
REMARK   94  A    between atoms: _264  and  _265
REMARK   95  A    between atoms: _270  and  _272
REMARK   96  A    between atoms: _272  and  _273
REMARK   97  A    between atoms: _272  and  _275
REMARK   98  A    between atoms: _275  and  _276
REMARK   99  A    between atoms: _279  and  _281
REMARK  100  A    between atoms: _281  and  _282
REMARK  101  A    between atoms: _285  and  _287
REMARK  102  A    between atoms: _287  and  _288
REMARK  103  A    between atoms: _287  and  _290
REMARK  104  A    between atoms: _293  and  _295
REMARK  105  A    between atoms: _295  and  _296
REMARK  106  A    between atoms: _295  and  _298
REMARK  107  A    between atoms: _298  and  _299
REMARK  108  A    between atoms: _302  and  _304
REMARK  109  A    between atoms: _304  and  _305
REMARK  110  A    between atoms: _307  and  _309
REMARK  111  A    between atoms: _309  and  _310
REMARK  112  A    between atoms: _309  and  _312
REMARK  113  A    between atoms: _312  and  _313
REMARK  114  A    between atoms: _315  and  _317
REMARK  115  A    between atoms: _317  and  _318
REMARK  116  A    between atoms: _317  and  _320
REMARK  117  A    between atoms: _320  and  _321
REMARK  118  A    between atoms: _324  and  _326
REMARK  119  A    between atoms: _326  and  _327
REMARK  120  A    between atoms: _326  and  _329
REMARK  121  A    between atoms: _329  and  _330
REMARK  122  A    between atoms: _333  and  _335
REMARK  123  A    between atoms: _335  and  _336
REMARK  124  A    between atoms: _335  and  _338
REMARK  125  A    between atoms: _338  and  _339
REMARK  126  A    between atoms: _343  and  _344
REMARK  127  A    between atoms: _350  and  _351
REMARK  128  A    between atoms: _356  and  _358
REMARK  129  A    between atoms: _358  and  _359
REMARK  130  A    between atoms: _358  and  _361
REMARK  131  A    between atoms: _361  and  _362
REMARK  132  A    between atoms: _365  and  _367
REMARK  133  A    between atoms: _367  and  _368
REMARK  134  A    between atoms: _367  and  _370
REMARK  135  A    between atoms: _370  and  _371
REMARK  136  A    between atoms: _374  and  _376
REMARK  137  A    between atoms: _376  and  _377
REMARK  138  A    between atoms: _376  and  _379
REMARK  139  A    between atoms: _381  and  _383
REMARK  140  A    between atoms: _383  and  _384
REMARK  141  A    between atoms: _383  and  _386
REMARK  142  A    between atoms: _389  and  _391
REMARK  143  A    between atoms: _391  and  _392
REMARK  144  A    between atoms: _391  and  _394
REMARK  145  A    between atoms: _394  and  _395
REMARK  146  A    between atoms: _405  and  _407
REMARK  147  A    between atoms: _407  and  _408
REMARK  148  A    between atoms: _407  and  _410
REMARK  149  A    between atoms: _410  and  _411
REMARK  150  A    between atoms: _416  and  _418
REMARK  151  A    between atoms: _418  and  _419
REMARK  152  A    between atoms: _418  and  _421
REMARK  153  A    between atoms: _421  and  _422
REMARK  154  A    between atoms: _422  and  _423
REMARK  155  A    between atoms: _423  and  _424
REMARK                            x       y       z     vdW  Elec       q    Type
REMARK                         _______ _______ _______ _____ _____    ______ ____
ROOT
ATOM      1  C   VAL A   2      -2.898  12.414  21.061  0.00  0.00    +0.241 C 
ATOM      2  O   VAL A   2      -2.138  11.597  21.563  0.00  0.00    -0.273 OA
ATOM      3  N   GLN A   3      -2.876  13.701  21.377  0.00  0.00    -0.298 N 
ATOM      4  H   GLN A   3      -3.543  14.347  20.908  0.00  0.00    +0.150 HD
ENDROOT
BRANCH   1   5
ATOM      5  CA  VAL A   2      -3.937  11.975  20.031  0.00  0.00    +0.148 C 
BRANCH   5   8
ATOM      6  C   ALA A   1      -5.814  13.401  20.640  0.00  0.00    +0.238 C 
ATOM      7  O   ALA A   1      -5.798  12.949  21.793  0.00  0.00    -0.274 OA
ATOM      8  N   VAL A   2      -4.937  13.008  19.714  0.00  0.00    -0.297 N 
ATOM      9  H   VAL A   2      -4.960  13.433  18.765  0.00  0.00    +0.150 HD
BRANCH   6  10
ATOM     10  CA  ALA A   1      -6.836  14.485  20.257  0.00  0.00    +0.145 C 
ATOM     11  CB  ALA A   1      -8.083  13.860  19.606  0.00  0.00    +0.028 C 
BRANCH  10  12
ATOM     12  N   ALA A   1      -6.287  15.537  19.407  0.00  0.00    -0.238 NA
ATOM     13  H   ALA A   1      -6.727  15.719  18.483  0.00  0.00    +0.142 HD
ENDBRANCH  10  12
ENDBRANCH   6  10
ENDBRANCH   5   8
BRANCH   5  14
ATOM     14  CB  VAL A   2      -3.206  11.415  18.783  0.00  0.00    +0.027 C 
ATOM     15  CG2 VAL A   2      -2.447  12.513  18.044  0.00  0.00    +0.002 C 
ATOM     16  CG1 VAL A   2      -4.191  10.721  17.888  0.00  0.00    +0.002 C 
ENDBRANCH   5  14
ENDBRANCH   1   5
BRANCH   3  17
ATOM     17  CA  GLN A   3      -1.948  14.238  22.359  0.00  0.00    +0.137 C 
BRANCH  17  18
ATOM     18  C   GLN A   3      -2.598  14.315  23.754  0.00  0.00    +0.227 C 
ATOM     19  O   GLN A   3      -1.981  14.797  24.703  0.00  0.00    -0.286 OA
ENDBRANCH  17  18
BRANCH  17  20
ATOM     20  CB  GLN A   3      -1.486  15.632  21.903  0.00  0.00    +0.037 C 
BRANCH  20  21
ATOM     21  CG  GLN A   3      -0.829  15.635  20.527  0.00  0.00    +0.087 C 
BRANCH  21  22
ATOM     22  CD  GLN A   3      -0.567  17.032  19.996  0.00  0.00    +0.219 C 
ATOM     23  OE1 GLN A   3      -0.185  17.934  20.736  0.00  0.00    -0.275 OA
ATOM     24  NE2 GLN A   3      -0.770  17.213  18.701  0.00  0.00    -0.329 N 
ATOM     25 HE21 GLN A   3      -0.606  18.147  18.274  0.00  0.00    +0.145 HD
ATOM     26 HE22 GLN A   3      -1.094  16.421  18.110  0.00  0.00    +0.145 HD
ENDBRANCH  21  22
ENDBRANCH  20  21
ENDBRANCH  17  20
ENDBRANCH   3  17
TORSDOF 10
REMARK  Name = ../refined-set-2016/1i9q/1i9q_pocket.pdb
REMARK  155 active torsions:
REMARK  status: ('A' for Active; 'I' for Inactive)
REMARK    1  A    between atoms: _1  and  _3
REMARK    2  A    between atoms: _3  and  _4
REMARK    3  A    between atoms: _3  and  _6
REMARK    4  A    between atoms: _6  and  _7
REMARK    5  A    between atoms: _17  and  _19
REMARK    6  A    between atoms: _19  and  _20
REMARK    7  A    between atoms: _19  and  _22
REMARK    8  A    between atoms: _22  and  _23
REMARK    9  A    between atoms: _28  and  _29
REMARK   10  A    between atoms: _31  and  _33
REMARK   11  A    between atoms: _33  and  _34
REMARK   12  A    between atoms: _33  and  _36
REMARK   13  A    between atoms: _36  and  _37
REMARK   14  A    between atoms: _40  and  _41
REMARK   15  A    between atoms: _46  and  _48
REMARK   16  A    between atoms: _48  and  _49
REMARK   17  A    between atoms: _48  and  _51
REMARK   18  A    between atoms: _51  and  _52
REMARK   19  A    between atoms: _57  and  _59
REMARK   20  A    between atoms: _59  and  _60
REMARK   21  A    between atoms: _59  and  _62
REMARK   22  A    between atoms: _62  and  _63
REMARK   23  A    between atoms: _68  and  _70
REMARK   24  A    between atoms: _70  and  _71
REMARK   25  A    between atoms: _74  and  _76
REMARK   26  A    between atoms: _76  and  _77
REMARK   27  A    between atoms: _76  and  _79
REMARK   28  A    between atoms: _79  and  _80
REMARK   29  A    between atoms: _85  and  _87
REMARK   30  A    between atoms: _87  and  _88
REMARK   31  A    between atoms: _87  and  _90
REMARK   32  A    between atoms: _90  and  _91
REMARK   33  A    between atoms: _94  and  _96
REMARK   34  A    between atoms: _96  and  _97
REMARK   35  A    between atoms: _96  and  _99
REMARK   36  A    between atoms: _99  and  _100
REMARK   37  A    between atoms: _100  and  _101
REMARK   38  A    between atoms: _106  and  _108
REMARK   39  A    between atoms: _108  and  _109
REMARK   40  A    between atoms: _108  and  _111
REMARK   41  A    between atoms: _111  and  _112
REMARK   42  A    between atoms: _118  and  _120
REMARK   43  A    between atoms: _131  and  _134
REMARK   44  A    between atoms: _134  and  _135
REMARK   45  A    between atoms: _143  and  _144
REMARK   46  A    between atoms: _152  and  _154
REMARK   47  A    between atoms: _154  and  _155
REMARK   48  A    between atoms: _154  and  _157
REMARK   49  A    between atoms: _157  and  _158
REMARK   50  A    between atoms: _158  and  _159
REMARK   51  A    between atoms: _162  and  _164
REMARK   52  A    between atoms: _164  and  _165
REMARK   53  A    between atoms: _164  and  _167
REMARK   54  A    between atoms: _167  and  _168
REMARK   55  A    between atoms: _173  and  _175
REMARK   56  A    between atoms: _175  and  _176
REMARK   57  A    between atoms: _175  and  _178
REMARK   58  A    between atoms: _178  and  _179
REMARK   59  A    between atoms: _179  and  _180
REMARK   60  A    between atoms: _183  and  _185
REMARK   61  A    between atoms: _185  and  _186
REMARK   62  A    between atoms: _185  and  _188
REMARK   63  A    between atoms: _188  and  _189
REMARK   64  A    between atoms: _192  and  _194
REMARK   65  A    between atoms: _194  and  _195
REMARK   66  A    between atoms: _194  and  _197
REMARK   67  A    between atoms: _197  and  _198
REMARK   68  A    between atoms: _199  and  ZN_433
REMARK   69  A    between atoms: _203  and  _205
REMARK   70  A    between atoms: _205  and  _206
REMARK   71  A    between atoms: _205  and  _208
REMARK   72  A    between atoms: _208  and  _209
REMARK   73  A    between atoms: _212  and  _214
REMARK   74  A    between atoms: _214  and  _215
REMARK   75  A    between atoms: _214  and  _217
REMARK   76  A    between atoms: _220  and  _222
REMARK   77  A    between atoms: _222  and  _223
REMARK   78  A    between atoms: _222  and  _225
REMARK   79  A    between atoms: _225  and  _226
REMARK   80  A    between atoms: _231  and  _233
REMARK   81  A    between atoms: _233  and  _234
REMARK   82  A    between atoms: _233  and  _236
REMARK   83  A    between atoms: _239  and  _241
REMARK   84  A    between atoms: _241  and  _242
REMARK   85  A    between atoms: _244  and  _246
REMARK   86  A    between atoms: _246  and  _247
REMARK   87  A    between atoms: _250  and  _252
REMARK   88  A    between atoms: _252  and  _253
REMARK   89  A    between atoms: _252  and  _255
REMARK   90  A    between atoms: _258  and  _260
REMARK   91  A    between atoms: _260  and  _261
REMARK   92  A    between atoms: _260  and  _263
REMARK   93  A    between atoms: _263  and  _264
REMARK   94  A    between atoms: _264  and  _265
REMARK   95  A    between atoms: _270  and  _272
REMARK   96  A    between atoms: _272  and  _273
REMARK   97  A    between atoms: _272  and  _275
REMARK   98  A    between atoms: _275  and  _276
REMARK   99  A    between atoms: _279  and  _281
REMARK  100  A    between atoms: _281  and  _282
REMARK  101  A    between atoms: _285  and  _287
REMARK  102  A    between atoms: _287  and  _288
REMARK  103  A    between atoms: _287  and  _290
REMARK  104  A    between atoms: _293  and  _295
REMARK  105  A    between atoms: _295  and  _296
REMARK  106  A    between atoms: _295  and  _298
REMARK  107  A    between atoms: _298  and  _299
REMARK  108  A    between atoms: _302  and  _304
REMARK  109  A    between atoms: _304  and  _305
REMARK  110  A    between atoms: _307  and  _309
REMARK  111  A    between atoms: _309  and  _310
REMARK  112  A    between atoms: _309  and  _312
REMARK  113  A    between atoms: _312  and  _313
REMARK  114  A    between atoms: _315  and  _317
REMARK  115  A    between atoms: _317  and  _318
REMARK  116  A    between atoms: _317  and  _320
REMARK  117  A    between atoms: _320  and  _321
REMARK  118  A    between atoms: _324  and  _326
REMARK  119  A    between atoms: _326  and  _327
REMARK  120  A    between atoms: _326  and  _329
REMARK  121  A    between atoms: _329  and  _330
REMARK  122  A    between atoms: _333  and  _335
REMARK  123  A    between atoms: _335  and  _336
REMARK  124  A    between atoms: _335  and  _338
REMARK  125  A    between atoms: _338  and  _339
REMARK  126  A    between atoms: _343  and  _344
REMARK  127  A    between atoms: _350  and  _351
REMARK  128  A    between atoms: _356  and  _358
REMARK  129  A    between atoms: _358  and  _359
REMARK  130  A    between atoms: _358  and  _361
REMARK  131  A    between atoms: _361  and  _362
REMARK  132  A    between atoms: _365  and  _367
REMARK  133  A    between atoms: _367  and  _368
REMARK  134  A    between atoms: _367  and  _370
REMARK  135  A    between atoms: _370  and  _371
REMARK  136  A    between atoms: _374  and  _376
REMARK  137  A    between atoms: _376  and  _377
REMARK  138  A    between atoms: _376  and  _379
REMARK  139  A    between atoms: _381  and  _383
REMARK  140  A    between atoms: _383  and  _384
REMARK  141  A    between atoms: _383  and  _386
REMARK  142  A    between atoms: _389  and  _391
REMARK  143  A    between atoms: _391  and  _392
REMARK  144  A    between atoms: _391  and  _394
REMARK  145  A    between atoms: _394  and  _395
REMARK  146  A    between atoms: _405  and  _407
REMARK  147  A    between atoms: _407  and  _408
REMARK  148  A    between atoms: _407  and  _410
REMARK  149  A    between atoms: _410  and  _411
REMARK  150  A    between atoms: _416  and  _418
REMARK  151  A    between atoms: _418  and  _419
REMARK  152  A    between atoms: _418  and  _421
REMARK  153  A    between atoms: _421  and  _422
REMARK  154  A    between atoms: _422  and  _423
REMARK  155  A    between atoms: _423  and  _424
REMARK                            x       y       z     vdW  Elec       q    Type
REMARK                         _______ _______ _______ _____ _____    ______ ____
ROOT
ATOM      1  CA  VAL A   3     -12.136   2.751  20.156  0.00  0.00    +0.149 C 
ENDROOT
BRANCH   1   3
ATOM      2  C   ALA A   2     -12.473   5.030  20.856  0.00  0.00    +0.241 C 
ATOM      3  N   VAL A   3     -12.052   3.809  21.160  0.00  0.00    -0.297 N 
ATOM      4  H   VAL A   3     -11.666   3.607  22.104  0.00  0.00    +0.150 HD
ATOM      5  O   ALA A   2     -12.819   5.337  19.714  0.00  0.00    -0.273 OA
BRANCH   2   6
ATOM      6  CA  ALA A   2     -12.413   6.090  21.947  0.00  0.00    +0.149 C 
ATOM      7  CB  ALA A   2     -13.809   6.632  22.230  0.00  0.00    +0.031 C 
BRANCH   6  10
ATOM      8  C   LEU A   1     -10.549   7.653  22.144  0.00  0.00    +0.238 C 
ATOM      9  O   LEU A   1     -10.332   7.348  23.316  0.00  0.00    -0.274 OA
ATOM     10  N   ALA A   2     -11.540   7.138  21.427  0.00  0.00    -0.297 N 
ATOM     11  H   ALA A   2     -11.700   7.493  20.463  0.00  0.00    +0.150 HD
BRANCH   8  12
ATOM     12  CA  LEU A   1      -9.690   8.675  21.424  0.00  0.00    +0.145 C 
BRANCH  12  13
ATOM     13  N   LEU A   1      -9.027   9.620  22.313  0.00  0.00    -0.238 NA
ATOM     14  H   LEU A   1      -8.420   9.271  23.082  0.00  0.00    +0.142 HD
ENDBRANCH  12  13
BRANCH  12  15
ATOM     15  CB  LEU A   1      -8.667   7.915  20.585  0.00  0.00    +0.026 C 
BRANCH  15  16
ATOM     16  CG  LEU A   1      -7.761   8.655  19.612  0.00  0.00    +0.002 C 
ATOM     17  CD2 LEU A   1      -7.002   7.631  18.793  0.00  0.00    +0.000 C 
ATOM     18  CD1 LEU A   1      -8.553   9.541  18.695  0.00  0.00    +0.000 C 
ENDBRANCH  15  16
ENDBRANCH  12  15
ENDBRANCH   8  12
ENDBRANCH   6  10
ENDBRANCH   2   6
ENDBRANCH   1   3
BRANCH   1  19
ATOM     19  C   VAL A   3     -13.097   1.691  20.647  0.00  0.00    +0.241 C 
ATOM     20  O   VAL A   3     -12.997   1.225  21.782  0.00  0.00    -0.273 OA
ATOM     21  N   LEU A   4     -14.056   1.359  19.792  0.00  0.00    -0.297 N 
ATOM     22  H   LEU A   4     -14.080   1.834  18.867  0.00  0.00    +0.150 HD
BRANCH  21  23
ATOM     23  CA  LEU A   4     -15.077   0.362  20.084  0.00  0.00    +0.149 C 
BRANCH  23  24
ATOM     24  C   LEU A   4     -14.574  -0.920  19.431  0.00  0.00    +0.241 C 
ATOM     25  N   GLY A   5     -14.261  -1.918  20.248  0.00  0.00    -0.296 N 
ATOM     26  H   GLY A   5     -14.392  -1.793  21.272  0.00  0.00    +0.150 HD
ATOM     27  O   LEU A   4     -14.384  -0.963  18.225  0.00  0.00    -0.273 OA
BRANCH  25  28
ATOM     28  CA  GLY A   5     -13.743  -3.173  19.754  0.00  0.00    +0.163 C 
BRANCH  28  29
ATOM     29  C   GLY A   5     -14.806  -4.241  19.724  0.00  0.00    +0.229 C 
ATOM     30  O   GLY A   5     -15.539  -4.428  20.696  0.00  0.00    -0.286 OA
ENDBRANCH  28  29
ENDBRANCH  25  28
ENDBRANCH  23  24
BRANCH  23  31
ATOM     31  CB  LEU A   4     -16.405   0.820  19.476  0.00  0.00    +0.029 C 
BRANCH  31  32
ATOM     32  CG  LEU A   4     -17.656  -0.009  19.739  0.00  0.00    +0.002 C 
ATOM     33  CD2 LEU A   4     -17.923  -0.072  21.224  0.00  0.00    +0.000 C 
ATOM     34  CD1 LEU A   4     -18.836   0.622  19.006  0.00  0.00    +0.000 C 
ENDBRANCH  31  32
ENDBRANCH  23  31
ENDBRANCH  21  23
ENDBRANCH   1  19
BRANCH   1  35
ATOM     35  CB  VAL A   3     -10.783   2.076  19.816  0.00  0.00    +0.027 C 
ATOM     36  CG2 VAL A   3      -9.749   3.116  19.381  0.00  0.00    +0.002 C 
ATOM     37  CG1 VAL A   3     -11.001   1.037  18.695  0.00  0.00    +0.002 C 
ENDBRANCH   1  35
TORSDOF 15
REMARK  Name = ../refined-set-2016/1i9q/1i9q_pocket.pdb
REMARK  155 active torsions:
REMARK  status: ('A' for Active; 'I' for Inactive)
REMARK    1  A    between atoms: _1  and  _3
REMARK    2  A    between atoms: _3  and  _4
REMARK    3  A    between atoms: _3  and  _6
REMARK    4  A    between atoms: _6  and  _7
REMARK    5  A    between atoms: _17  and  _19
REMARK    6  A    between atoms: _19  and  _20
REMARK    7  A    between atoms: _19  and  _22
REMARK    8  A    between atoms: _22  and  _23
REMARK    9  A    between atoms: _28  and  _29
REMARK   10  A    between atoms: _31  and  _33
REMARK   11  A    between atoms: _33  and  _34
REMARK   12  A    between atoms: _33  and  _36
REMARK   13  A    between atoms: _36  and  _37
REMARK   14  A    between atoms: _40  and  _41
REMARK   15  A    between atoms: _46  and  _48
REMARK   16  A    between atoms: _48  and  _49
REMARK   17  A    between atoms: _48  and  _51
REMARK   18  A    between atoms: _51  and  _52
REMARK   19  A    between atoms: _57  and  _59
REMARK   20  A    between atoms: _59  and  _60
REMARK   21  A    between atoms: _59  and  _62
REMARK   22  A    between atoms: _62  and  _63
REMARK   23  A    between atoms: _68  and  _70
REMARK   24  A    between atoms: _70  and  _71
REMARK   25  A    between atoms: _74  and  _76
REMARK   26  A    between atoms: _76  and  _77
REMARK   27  A    between atoms: _76  and  _79
REMARK   28  A    between atoms: _79  and  _80
REMARK   29  A    between atoms: _85  and  _87
REMARK   30  A    between atoms: _87  and  _88
REMARK   31  A    between atoms: _87  and  _90
REMARK   32  A    between atoms: _90  and  _91
REMARK   33  A    between atoms: _94  and  _96
REMARK   34  A    between atoms: _96  and  _97
REMARK   35  A    between atoms: _96  and  _99
REMARK   36  A    between atoms: _99  and  _100
REMARK   37  A    between atoms: _100  and  _101
REMARK   38  A    between atoms: _106  and  _108
REMARK   39  A    between atoms: _108  and  _109
REMARK   40  A    between atoms: _108  and  _111
REMARK   41  A    between atoms: _111  and  _112
REMARK   42  A    between atoms: _118  and  _120
REMARK   43  A    between atoms: _131  and  _134
REMARK   44  A    between atoms: _134  and  _135
REMARK   45  A    between atoms: _143  and  _144
REMARK   46  A    between atoms: _152  and  _154
REMARK   47  A    between atoms: _154  and  _155
REMARK   48  A    between atoms: _154  and  _157
REMARK   49  A    between atoms: _157  and  _158
REMARK   50  A    between atoms: _158  and  _159
REMARK   51  A    between atoms: _162  and  _164
REMARK   52  A    between atoms: _164  and  _165
REMARK   53  A    between atoms: _164  and  _167
REMARK   54  A    between atoms: _167  and  _168
REMARK   55  A    between atoms: _173  and  _175
REMARK   56  A    between atoms: _175  and  _176
REMARK   57  A    between atoms: _175  and  _178
REMARK   58  A    between atoms: _178  and  _179
REMARK   59  A    between atoms: _179  and  _180
REMARK   60  A    between atoms: _183  and  _185
REMARK   61  A    between atoms: _185  and  _186
REMARK   62  A    between atoms: _185  and  _188
REMARK   63  A    between atoms: _188  and  _189
REMARK   64  A    between atoms: _192  and  _194
REMARK   65  A    between atoms: _194  and  _195
REMARK   66  A    between atoms: _194  and  _197
REMARK   67  A    between atoms: _197  and  _198
REMARK   68  A    between atoms: _199  and  ZN_433
REMARK   69  A    between atoms: _203  and  _205
REMARK   70  A    between atoms: _205  and  _206
REMARK   71  A    between atoms: _205  and  _208
REMARK   72  A    between atoms: _208  and  _209
REMARK   73  A    between atoms: _212  and  _214
REMARK   74  A    between atoms: _214  and  _215
REMARK   75  A    between atoms: _214  and  _217
REMARK   76  A    between atoms: _220  and  _222
REMARK   77  A    between atoms: _222  and  _223
REMARK   78  A    between atoms: _222  and  _225
REMARK   79  A    between atoms: _225  and  _226
REMARK   80  A    between atoms: _231  and  _233
REMARK   81  A    between atoms: _233  and  _234
REMARK   82  A    between atoms: _233  and  _236
REMARK   83  A    between atoms: _239  and  _241
REMARK   84  A    between atoms: _241  and  _242
REMARK   85  A    between atoms: _244  and  _246
REMARK   86  A    between atoms: _246  and  _247
REMARK   87  A    between atoms: _250  and  _252
REMARK   88  A    between atoms: _252  and  _253
REMARK   89  A    between atoms: _252  and  _255
REMARK   90  A    between atoms: _258  and  _260
REMARK   91  A    between atoms: _260  and  _261
REMARK   92  A    between atoms: _260  and  _263
REMARK   93  A    between atoms: _263  and  _264
REMARK   94  A    between atoms: _264  and  _265
REMARK   95  A    between atoms: _270  and  _272
REMARK   96  A    between atoms: _272  and  _273
REMARK   97  A    between atoms: _272  and  _275
REMARK   98  A    between atoms: _275  and  _276
REMARK   99  A    between atoms: _279  and  _281
REMARK  100  A    between atoms: _281  and  _282
REMARK  101  A    between atoms: _285  and  _287
REMARK  102  A    between atoms: _287  and  _288
REMARK  103  A    between atoms: _287  and  _290
REMARK  104  A    between atoms: _293  and  _295
REMARK  105  A    between atoms: _295  and  _296
REMARK  106  A    between atoms: _295  and  _298
REMARK  107  A    between atoms: _298  and  _299
REMARK  108  A    between atoms: _302  and  _304
REMARK  109  A    between atoms: _304  and  _305
REMARK  110  A    between atoms: _307  and  _309
REMARK  111  A    between atoms: _309  and  _310
REMARK  112  A    between atoms: _309  and  _312
REMARK  113  A    between atoms: _312  and  _313
REMARK  114  A    between atoms: _315  and  _317
REMARK  115  A    between atoms: _317  and  _318
REMARK  116  A    between atoms: _317  and  _320
REMARK  117  A    between atoms: _320  and  _321
REMARK  118  A    between atoms: _324  and  _326
REMARK  119  A    between atoms: _326  and  _327
REMARK  120  A    between atoms: _326  and  _329
REMARK  121  A    between atoms: _329  and  _330
REMARK  122  A    between atoms: _333  and  _335
REMARK  123  A    between atoms: _335  and  _336
REMARK  124  A    between atoms: _335  and  _338
REMARK  125  A    between atoms: _338  and  _339
REMARK  126  A    between atoms: _343  and  _344
REMARK  127  A    between atoms: _350  and  _351
REMARK  128  A    between atoms: _356  and  _358
REMARK  129  A    between atoms: _358  and  _359
REMARK  130  A    between atoms: _358  and  _361
REMARK  131  A    between atoms: _361  and  _362
REMARK  132  A    between atoms: _365  and  _367
REMARK  133  A    between atoms: _367  and  _368
REMARK  134  A    between atoms: _367  and  _370
REMARK  135  A    between atoms: _370  and  _371
REMARK  136  A    between atoms: _374  and  _376
REMARK  137  A    between atoms: _376  and  _377
REMARK  138  A    between atoms: _376  and  _379
REMARK  139  A    between atoms: _381  and  _383
REMARK  140  A    between atoms: _383  and  _384
REMARK  141  A    between atoms: _383  and  _386
REMARK  142  A    between atoms: _389  and  _391
REMARK  143  A    between atoms: _391  and  _392
REMARK  144  A    between atoms: _391  and  _394
REMARK  145  A    between atoms: _394  and  _395
REMARK  146  A    between atoms: _405  and  _407
REMARK  147  A    between atoms: _407  and  _408
REMARK  148  A    between atoms: _407  and  _410
REMARK  149  A    between atoms: _410  and  _411
REMARK  150  A    between atoms: _416  and  _418
REMARK  151  A    between atoms: _418  and  _419
REMARK  152  A    between atoms: _418  and  _421
REMARK  153  A    between atoms: _421  and  _422
REMARK  154  A    between atoms: _422  and  _423
REMARK  155  A    between atoms: _423  and  _424
REMARK                            x       y       z     vdW  Elec       q    Type
REMARK                         _______ _______ _______ _____ _____    ______ ____
ROOT
ATOM      1  C   THR A   4       0.946   1.350  16.550  0.00  0.00    +0.246 C 
ATOM      2  O   THR A   4       0.494   2.223  17.302  0.00  0.00    -0.273 OA
ATOM      3  N   PRO A   5       2.182   1.432  16.030  0.00  0.00    -0.272 N 
ATOM      4  CA  PRO A   5       2.987   2.642  16.222  0.00  0.00    +0.152 C 
ATOM      5  CB  PRO A   5       4.206   2.364  15.344  0.00  0.00    +0.031 C 
ATOM      6  CG  PRO A   5       4.408   0.888  15.542  0.00  0.00    +0.024 C 
ATOM      7  CD  PRO A   5       2.978   0.366  15.394  0.00  0.00    +0.094 C 
ENDROOT
BRANCH   4   8
ATOM      8  C   PRO A   5       2.173   3.810  15.666  0.00  0.00    +0.244 C 
ATOM      9  N   PRO A   6       2.307   5.015  16.247  0.00  0.00    -0.272 N 
ATOM     10  CA  PRO A   6       3.135   5.453  17.378  0.00  0.00    +0.152 C 
ATOM     11  CB  PRO A   6       3.045   6.973  17.276  0.00  0.00    +0.031 C 
ATOM     12  CG  PRO A   6       1.701   7.197  16.723  0.00  0.00    +0.024 C 
ATOM     13  CD  PRO A   6       1.642   6.176  15.626  0.00  0.00    +0.094 C 
ATOM     14  O   PRO A   5       1.418   3.632  14.704  0.00  0.00    -0.273 OA
BRANCH  10  15
ATOM     15  C   PRO A   6       2.795   4.940  18.803  0.00  0.00    +0.241 C 
ATOM     16  O   PRO A   6       3.467   5.317  19.761  0.00  0.00    -0.273 OA
ATOM     17  N   LEU A   7       1.751   4.116  18.941  0.00  0.00    -0.297 N 
ATOM     18  H   LEU A   7       1.188   3.881  18.099  0.00  0.00    +0.150 HD
BRANCH  17  19
ATOM     19  CA  LEU A   7       1.365   3.528  20.234  0.00  0.00    +0.149 C 
BRANCH  19  20
ATOM     20  C   LEU A   7       1.025   4.540  21.342  0.00  0.00    +0.241 C 
ATOM     21  O   LEU A   7       1.206   4.271  22.539  0.00  0.00    -0.273 OA
ATOM     22  N   LEU A   8       0.441   5.662  20.939  0.00  0.00    -0.298 N 
ATOM     23  H   LEU A   8       0.241   5.792  19.927  0.00  0.00    +0.150 HD
BRANCH  22  24
ATOM     24  CA  LEU A   8       0.071   6.718  21.875  0.00  0.00    +0.137 C 
BRANCH  24  25
ATOM     25  C   LEU A   8      -0.981   6.261  22.896  0.00  0.00    +0.227 C 
ATOM     26  O   LEU A   8      -1.972   5.608  22.551  0.00  0.00    -0.286 OA
ENDBRANCH  24  25
BRANCH  24  27
ATOM     27  CB  LEU A   8      -0.407   7.946  21.102  0.00  0.00    +0.028 C 
BRANCH  27  28
ATOM     28  CG  LEU A   8       0.706   8.499  20.194  0.00  0.00    +0.002 C 
ATOM     29  CD2 LEU A   8       1.863   9.047  21.037  0.00  0.00    +0.000 C 
ATOM     30  CD1 LEU A   8       0.141   9.586  19.294  0.00  0.00    +0.000 C 
ENDBRANCH  27  28
ENDBRANCH  24  27
ENDBRANCH  22  24
ENDBRANCH  19  20
BRANCH  19  31
ATOM     31  CB  LEU A   7       2.468   2.577  20.710  0.00  0.00    +0.029 C 
BRANCH  31  32
ATOM     32  CG  LEU A   7       2.844   1.463  19.731  0.00  0.00    +0.002 C 
ATOM     33  CD2 LEU A   7       4.256   0.975  20.014  0.00  0.00    +0.000 C 
ATOM     34  CD1 LEU A   7       1.836   0.333  19.831  0.00  0.00    +0.000 C 
ENDBRANCH  31  32
ENDBRANCH  19  31
ENDBRANCH  17  19
ENDBRANCH  10  15
ENDBRANCH   4   8
BRANCH   1  35
ATOM     35  CA  THR A   4       0.154   0.066  16.298  0.00  0.00    +0.176 C 
BRANCH  35  38
ATOM     36  C   THR A   3      -1.069  -1.049  18.079  0.00  0.00    +0.243 C 
ATOM     37  O   THR A   3      -0.497  -2.122  17.854  0.00  0.00    -0.273 OA
ATOM     38  N   THR A   4      -0.875   0.039  17.335  0.00  0.00    -0.295 N 
ATOM     39  H   THR A   4      -1.464   0.881  17.495  0.00  0.00    +0.150 HD
BRANCH  36  40
ATOM     40  CA  THR A   3      -2.116  -0.944  19.183  0.00  0.00    +0.176 C 
BRANCH  40  43
ATOM     41  C   LEU A   2      -2.416   1.319  19.966  0.00  0.00    +0.241 C 
ATOM     42  O   LEU A   2      -1.410   1.202  20.692  0.00  0.00    -0.273 OA
ATOM     43  N   THR A   3      -2.839   0.329  19.185  0.00  0.00    -0.295 N 
ATOM     44  H   THR A   3      -3.676   0.458  18.581  0.00  0.00    +0.150 HD
BRANCH  41  45
ATOM     45  CA  LEU A   2      -3.197   2.642  19.952  0.00  0.00    +0.149 C 
BRANCH  45  48
ATOM     46  C   SER A   1      -3.617   2.497  22.345  0.00  0.00    +0.241 C 
ATOM     47  O   SER A   1      -4.431   1.577  22.192  0.00  0.00    -0.274 OA
ATOM     48  N   LEU A   2      -3.022   3.111  21.326  0.00  0.00    -0.297 N 
ATOM     49  H   LEU A   2      -2.421   3.940  21.510  0.00  0.00    +0.150 HD
BRANCH  46  50
ATOM     50  CA  SER A   1      -3.269   3.016  23.748  0.00  0.00    +0.174 C 
BRANCH  50  51
ATOM     51  N   SER A   1      -4.013   2.327  24.789  0.00  0.00    -0.236 NA
ATOM     52  H   SER A   1      -4.245   1.322  24.658  0.00  0.00    +0.142 HD
ENDBRANCH  50  51
BRANCH  50  53
ATOM     53  CB  SER A   1      -1.793   2.721  23.998  0.00  0.00    +0.163 C 
BRANCH  53  54
ATOM     54  OG  SER A   1      -1.498   1.380  23.630  0.00  0.00    -0.380 OA
ATOM     55  H   SER A   1      -1.699   1.251  22.669  0.00  0.00    +0.211 HD
ENDBRANCH  53  54
ENDBRANCH  50  53
ENDBRANCH  46  50
ENDBRANCH  45  48
BRANCH  45  56
ATOM     56  CB  LEU A   2      -2.514   3.598  18.975  0.00  0.00    +0.029 C 
BRANCH  56  57
ATOM     57  CG  LEU A   2      -2.981   5.053  18.966  0.00  0.00    +0.002 C 
ATOM     58  CD2 LEU A   2      -4.425   5.118  18.514  0.00  0.00    +0.000 C 
ATOM     59  CD1 LEU A   2      -2.097   5.861  18.047  0.00  0.00    +0.000 C 
ENDBRANCH  56  57
ENDBRANCH  45  56
ENDBRANCH  41  45
ENDBRANCH  40  43
BRANCH  40  60
ATOM     60  CB  THR A   3      -3.066  -2.139  19.110  0.00  0.00    +0.137 C 
ATOM     61  CG2 THR A   3      -4.111  -2.074  20.236  0.00  0.00    +0.034 C 
BRANCH  60  62
ATOM     62  OG1 THR A   3      -3.725  -2.133  17.842  0.00  0.00    -0.382 OA
ATOM     63  HG1 THR A   3      -4.342  -2.905  17.789  0.00  0.00    +0.210 HD
ENDBRANCH  60  62
ENDBRANCH  40  60
ENDBRANCH  36  40
ENDBRANCH  35  38
BRANCH  35  64
ATOM     64  CB  THR A   4      -0.437   0.103  14.858  0.00  0.00    +0.137 C 
ATOM     65  CG2 THR A   4      -1.305  -1.118  14.588  0.00  0.00    +0.034 C 
BRANCH  64  66
ATOM     66  OG1 THR A   4      -1.234   1.279  14.700  0.00  0.00    -0.382 OA
ATOM     67  HG1 THR A   4      -0.671   2.080  14.847  0.00  0.00    +0.210 HD
ENDBRANCH  64  66
ENDBRANCH  35  64
ENDBRANCH   1  35
TORSDOF 26
REMARK  Name = ../refined-set-2016/1i9q/1i9q_pocket.pdb
REMARK  155 active torsions:
REMARK  status: ('A' for Active; 'I' for Inactive)
REMARK    1  A    between atoms: _1  and  _3
REMARK    2  A    between atoms: _3  and  _4
REMARK    3  A    between atoms: _3  and  _6
REMARK    4  A    between atoms: _6  and  _7
REMARK    5  A    between atoms: _17  and  _19
REMARK    6  A    between atoms: _19  and  _20
REMARK    7  A    between atoms: _19  and  _22
REMARK    8  A    between atoms: _22  and  _23
REMARK    9  A    between atoms: _28  and  _29
REMARK   10  A    between atoms: _31  and  _33
REMARK   11  A    between atoms: _33  and  _34
REMARK   12  A    between atoms: _33  and  _36
REMARK   13  A    between atoms: _36  and  _37
REMARK   14  A    between atoms: _40  and  _41
REMARK   15  A    between atoms: _46  and  _48
REMARK   16  A    between atoms: _48  and  _49
REMARK   17  A    between atoms: _48  and  _51
REMARK   18  A    between atoms: _51  and  _52
REMARK   19  A    between atoms: _57  and  _59
REMARK   20  A    between atoms: _59  and  _60
REMARK   21  A    between atoms: _59  and  _62
REMARK   22  A    between atoms: _62  and  _63
REMARK   23  A    between atoms: _68  and  _70
REMARK   24  A    between atoms: _70  and  _71
REMARK   25  A    between atoms: _74  and  _76
REMARK   26  A    between atoms: _76  and  _77
REMARK   27  A    between atoms: _76  and  _79
REMARK   28  A    between atoms: _79  and  _80
REMARK   29  A    between atoms: _85  and  _87
REMARK   30  A    between atoms: _87  and  _88
REMARK   31  A    between atoms: _87  and  _90
REMARK   32  A    between atoms: _90  and  _91
REMARK   33  A    between atoms: _94  and  _96
REMARK   34  A    between atoms: _96  and  _97
REMARK   35  A    between atoms: _96  and  _99
REMARK   36  A    between atoms: _99  and  _100
REMARK   37  A    between atoms: _100  and  _101
REMARK   38  A    between atoms: _106  and  _108
REMARK   39  A    between atoms: _108  and  _109
REMARK   40  A    between atoms: _108  and  _111
REMARK   41  A    between atoms: _111  and  _112
REMARK   42  A    between atoms: _118  and  _120
REMARK   43  A    between atoms: _131  and  _134
REMARK   44  A    between atoms: _134  and  _135
REMARK   45  A    between atoms: _143  and  _144
REMARK   46  A    between atoms: _152  and  _154
REMARK   47  A    between atoms: _154  and  _155
REMARK   48  A    between atoms: _154  and  _157
REMARK   49  A    between atoms: _157  and  _158
REMARK   50  A    between atoms: _158  and  _159
REMARK   51  A    between atoms: _162  and  _164
REMARK   52  A    between atoms: _164  and  _165
REMARK   53  A    between atoms: _164  and  _167
REMARK   54  A    between atoms: _167  and  _168
REMARK   55  A    between atoms: _173  and  _175
REMARK   56  A    between atoms: _175  and  _176
REMARK   57  A    between atoms: _175  and  _178
REMARK   58  A    between atoms: _178  and  _179
REMARK   59  A    between atoms: _179  and  _180
REMARK   60  A    between atoms: _183  and  _185
REMARK   61  A    between atoms: _185  and  _186
REMARK   62  A    between atoms: _185  and  _188
REMARK   63  A    between atoms: _188  and  _189
REMARK   64  A    between atoms: _192  and  _194
REMARK   65  A    between atoms: _194  and  _195
REMARK   66  A    between atoms: _194  and  _197
REMARK   67  A    between atoms: _197  and  _198
REMARK   68  A    between atoms: _199  and  ZN_433
REMARK   69  A    between atoms: _203  and  _205
REMARK   70  A    between atoms: _205  and  _206
REMARK   71  A    between atoms: _205  and  _208
REMARK   72  A    between atoms: _208  and  _209
REMARK   73  A    between atoms: _212  and  _214
REMARK   74  A    between atoms: _214  and  _215
REMARK   75  A    between atoms: _214  and  _217
REMARK   76  A    between atoms: _220  and  _222
REMARK   77  A    between atoms: _222  and  _223
REMARK   78  A    between atoms: _222  and  _225
REMARK   79  A    between atoms: _225  and  _226
REMARK   80  A    between atoms: _231  and  _233
REMARK   81  A    between atoms: _233  and  _234
REMARK   82  A    between atoms: _233  and  _236
REMARK   83  A    between atoms: _239  and  _241
REMARK   84  A    between atoms: _241  and  _242
REMARK   85  A    between atoms: _244  and  _246
REMARK   86  A    between atoms: _246  and  _247
REMARK   87  A    between atoms: _250  and  _252
REMARK   88  A    between atoms: _252  and  _253
REMARK   89  A    between atoms: _252  and  _255
REMARK   90  A    between atoms: _258  and  _260
REMARK   91  A    between atoms: _260  and  _261
REMARK   92  A    between atoms: _260  and  _263
REMARK   93  A    between atoms: _263  and  _264
REMARK   94  A    between atoms: _264  and  _265
REMARK   95  A    between atoms: _270  and  _272
REMARK   96  A    between atoms: _272  and  _273
REMARK   97  A    between atoms: _272  and  _275
REMARK   98  A    between atoms: _275  and  _276
REMARK   99  A    between atoms: _279  and  _281
REMARK  100  A    between atoms: _281  and  _282
REMARK  101  A    between atoms: _285  and  _287
REMARK  102  A    between atoms: _287  and  _288
REMARK  103  A    between atoms: _287  and  _290
REMARK  104  A    between atoms: _293  and  _295
REMARK  105  A    between atoms: _295  and  _296
REMARK  106  A    between atoms: _295  and  _298
REMARK  107  A    between atoms: _298  and  _299
REMARK  108  A    between atoms: _302  and  _304
REMARK  109  A    between atoms: _304  and  _305
REMARK  110  A    between atoms: _307  and  _309
REMARK  111  A    between atoms: _309  and  _310
REMARK  112  A    between atoms: _309  and  _312
REMARK  113  A    between atoms: _312  and  _313
REMARK  114  A    between atoms: _315  and  _317
REMARK  115  A    between atoms: _317  and  _318
REMARK  116  A    between atoms: _317  and  _320
REMARK  117  A    between atoms: _320  and  _321
REMARK  118  A    between atoms: _324  and  _326
REMARK  119  A    between atoms: _326  and  _327
REMARK  120  A    between atoms: _326  and  _329
REMARK  121  A    between atoms: _329  and  _330
REMARK  122  A    between atoms: _333  and  _335
REMARK  123  A    between atoms: _335  and  _336
REMARK  124  A    between atoms: _335  and  _338
REMARK  125  A    between atoms: _338  and  _339
REMARK  126  A    between atoms: _343  and  _344
REMARK  127  A    between atoms: _350  and  _351
REMARK  128  A    between atoms: _356  and  _358
REMARK  129  A    between atoms: _358  and  _359
REMARK  130  A    between atoms: _358  and  _361
REMARK  131  A    between atoms: _361  and  _362
REMARK  132  A    between atoms: _365  and  _367
REMARK  133  A    between atoms: _367  and  _368
REMARK  134  A    between atoms: _367  and  _370
REMARK  135  A    between atoms: _370  and  _371
REMARK  136  A    between atoms: _374  and  _376
REMARK  137  A    between atoms: _376  and  _377
REMARK  138  A    between atoms: _376  and  _379
REMARK  139  A    between atoms: _381  and  _383
REMARK  140  A    between atoms: _383  and  _384
REMARK  141  A    between atoms: _383  and  _386
REMARK  142  A    between atoms: _389  and  _391
REMARK  143  A    between atoms: _391  and  _392
REMARK  144  A    between atoms: _391  and  _394
REMARK  145  A    between atoms: _394  and  _395
REMARK  146  A    between atoms: _405  and  _407
REMARK  147  A    between atoms: _407  and  _408
REMARK  148  A    between atoms: _407  and  _410
REMARK  149  A    between atoms: _410  and  _411
REMARK  150  A    between atoms: _416  and  _418
REMARK  151  A    between atoms: _418  and  _419
REMARK  152  A    between atoms: _418  and  _421
REMARK  153  A    between atoms: _421  and  _422
REMARK  154  A    between atoms: _422  and  _423
REMARK  155  A    between atoms: _423  and  _424
REMARK                            x       y       z     vdW  Elec       q    Type
REMARK                         _______ _______ _______ _____ _____    ______ ____
ROOT
ATOM      1  C   CYS A   1      -6.048   7.652  24.220  0.00  0.00    +0.239 C 
ATOM      2  N   VAL A   2      -6.130   6.347  24.406  0.00  0.00    -0.298 N 
ATOM      3  H   VAL A   2      -5.301   5.814  24.739  0.00  0.00    +0.150 HD
ATOM      4  O   CYS A   1      -7.023   8.345  23.934  0.00  0.00    -0.274 OA
ENDROOT
BRANCH   1   5
ATOM      5  CA  CYS A   1      -4.693   8.294  24.422  0.00  0.00    +0.156 C 
BRANCH   5   6
ATOM      6  N   CYS A   1      -3.593   7.319  24.425  0.00  0.00    -0.237 NA
ATOM      7  H   CYS A   1      -3.501   6.663  23.623  0.00  0.00    +0.142 HD
ENDBRANCH   5   6
BRANCH   5   8
ATOM      8  CB  CYS A   1      -4.497   9.259  23.263  0.00  0.00    +0.095 C 
ATOM      9  SG  CYS A   1      -4.211   8.396  21.711  0.00  0.00    -0.080 S 
ENDBRANCH   5   8
ENDBRANCH   1   5
BRANCH   2  10
ATOM     10  CA  VAL A   2      -7.379   5.660  24.145  0.00  0.00    +0.137 C 
BRANCH  10  11
ATOM     11  CB  VAL A   2      -7.149   4.509  23.124  0.00  0.00    +0.026 C 
ATOM     12  CG2 VAL A   2      -8.477   3.845  22.738  0.00  0.00    +0.002 C 
ATOM     13  CG1 VAL A   2      -6.430   5.026  21.907  0.00  0.00    +0.002 C 
ENDBRANCH  10  11
BRANCH  10  14
ATOM     14  C   VAL A   2      -8.191   5.076  25.287  0.00  0.00    +0.227 C 
ATOM     15  O   VAL A   2      -7.660   4.432  26.197  0.00  0.00    -0.286 OA
ENDBRANCH  10  14
ENDBRANCH   2  10
TORSDOF 6
REMARK  Name = ../refined-set-2016/1i9q/1i9q_pocket.pdb
REMARK  155 active torsions:
REMARK  status: ('A' for Active; 'I' for Inactive)
REMARK    1  A    between atoms: _1  and  _3
REMARK    2  A    between atoms: _3  and  _4
REMARK    3  A    between atoms: _3  and  _6
REMARK    4  A    between atoms: _6  and  _7
REMARK    5  A    between atoms: _17  and  _19
REMARK    6  A    between atoms: _19  and  _20
REMARK    7  A    between atoms: _19  and  _22
REMARK    8  A    between atoms: _22  and  _23
REMARK    9  A    between atoms: _28  and  _29
REMARK   10  A    between atoms: _31  and  _33
REMARK   11  A    between atoms: _33  and  _34
REMARK   12  A    between atoms: _33  and  _36
REMARK   13  A    between atoms: _36  and  _37
REMARK   14  A    between atoms: _40  and  _41
REMARK   15  A    between atoms: _46  and  _48
REMARK   16  A    between atoms: _48  and  _49
REMARK   17  A    between atoms: _48  and  _51
REMARK   18  A    between atoms: _51  and  _52
REMARK   19  A    between atoms: _57  and  _59
REMARK   20  A    between atoms: _59  and  _60
REMARK   21  A    between atoms: _59  and  _62
REMARK   22  A    between atoms: _62  and  _63
REMARK   23  A    between atoms: _68  and  _70
REMARK   24  A    between atoms: _70  and  _71
REMARK   25  A    between atoms: _74  and  _76
REMARK   26  A    between atoms: _76  and  _77
REMARK   27  A    between atoms: _76  and  _79
REMARK   28  A    between atoms: _79  and  _80
REMARK   29  A    between atoms: _85  and  _87
REMARK   30  A    between atoms: _87  and  _88
REMARK   31  A    between atoms: _87  and  _90
REMARK   32  A    between atoms: _90  and  _91
REMARK   33  A    between atoms: _94  and  _96
REMARK   34  A    between atoms: _96  and  _97
REMARK   35  A    between atoms: _96  and  _99
REMARK   36  A    between atoms: _99  and  _100
REMARK   37  A    between atoms: _100  and  _101
REMARK   38  A    between atoms: _106  and  _108
REMARK   39  A    between atoms: _108  and  _109
REMARK   40  A    between atoms: _108  and  _111
REMARK   41  A    between atoms: _111  and  _112
REMARK   42  A    between atoms: _118  and  _120
REMARK   43  A    between atoms: _131  and  _134
REMARK   44  A    between atoms: _134  and  _135
REMARK   45  A    between atoms: _143  and  _144
REMARK   46  A    between atoms: _152  and  _154
REMARK   47  A    between atoms: _154  and  _155
REMARK   48  A    between atoms: _154  and  _157
REMARK   49  A    between atoms: _157  and  _158
REMARK   50  A    between atoms: _158  and  _159
REMARK   51  A    between atoms: _162  and  _164
REMARK   52  A    between atoms: _164  and  _165
REMARK   53  A    between atoms: _164  and  _167
REMARK   54  A    between atoms: _167  and  _168
REMARK   55  A    between atoms: _173  and  _175
REMARK   56  A    between atoms: _175  and  _176
REMARK   57  A    between atoms: _175  and  _178
REMARK   58  A    between atoms: _178  and  _179
REMARK   59  A    between atoms: _179  and  _180
REMARK   60  A    between atoms: _183  and  _185
REMARK   61  A    between atoms: _185  and  _186
REMARK   62  A    between atoms: _185  and  _188
REMARK   63  A    between atoms: _188  and  _189
REMARK   64  A    between atoms: _192  and  _194
REMARK   65  A    between atoms: _194  and  _195
REMARK   66  A    between atoms: _194  and  _197
REMARK   67  A    between atoms: _197  and  _198
REMARK   68  A    between atoms: _199  and  ZN_433
REMARK   69  A    between atoms: _203  and  _205
REMARK   70  A    between atoms: _205  and  _206
REMARK   71  A    between atoms: _205  and  _208
REMARK   72  A    between atoms: _208  and  _209
REMARK   73  A    between atoms: _212  and  _214
REMARK   74  A    between atoms: _214  and  _215
REMARK   75  A    between atoms: _214  and  _217
REMARK   76  A    between atoms: _220  and  _222
REMARK   77  A    between atoms: _222  and  _223
REMARK   78  A    between atoms: _222  and  _225
REMARK   79  A    between atoms: _225  and  _226
REMARK   80  A    between atoms: _231  and  _233
REMARK   81  A    between atoms: _233  and  _234
REMARK   82  A    between atoms: _233  and  _236
REMARK   83  A    between atoms: _239  and  _241
REMARK   84  A    between atoms: _241  and  _242
REMARK   85  A    between atoms: _244  and  _246
REMARK   86  A    between atoms: _246  and  _247
REMARK   87  A    between atoms: _250  and  _252
REMARK   88  A    between atoms: _252  and  _253
REMARK   89  A    between atoms: _252  and  _255
REMARK   90  A    between atoms: _258  and  _260
REMARK   91  A    between atoms: _260  and  _261
REMARK   92  A    between atoms: _260  and  _263
REMARK   93  A    between atoms: _263  and  _264
REMARK   94  A    between atoms: _264  and  _265
REMARK   95  A    between atoms: _270  and  _272
REMARK   96  A    between atoms: _272  and  _273
REMARK   97  A    between atoms: _272  and  _275
REMARK   98  A    between atoms: _275  and  _276
REMARK   99  A    between atoms: _279  and  _281
REMARK  100  A    between atoms: _281  and  _282
REMARK  101  A    between atoms: _285  and  _287
REMARK  102  A    between atoms: _287  and  _288
REMARK  103  A    between atoms: _287  and  _290
REMARK  104  A    between atoms: _293  and  _295
REMARK  105  A    between atoms: _295  and  _296
REMARK  106  A    between atoms: _295  and  _298
REMARK  107  A    between atoms: _298  and  _299
REMARK  108  A    between atoms: _302  and  _304
REMARK  109  A    between atoms: _304  and  _305
REMARK  110  A    between atoms: _307  and  _309
REMARK  111  A    between atoms: _309  and  _310
REMARK  112  A    between atoms: _309  and  _312
REMARK  113  A    between atoms: _312  and  _313
REMARK  114  A    between atoms: _315  and  _317
REMARK  115  A    between atoms: _317  and  _318
REMARK  116  A    between atoms: _317  and  _320
REMARK  117  A    between atoms: _320  and  _321
REMARK  118  A    between atoms: _324  and  _326
REMARK  119  A    between atoms: _326  and  _327
REMARK  120  A    between atoms: _326  and  _329
REMARK  121  A    between atoms: _329  and  _330
REMARK  122  A    between atoms: _333  and  _335
REMARK  123  A    between atoms: _335  and  _336
REMARK  124  A    between atoms: _335  and  _338
REMARK  125  A    between atoms: _338  and  _339
REMARK  126  A    between atoms: _343  and  _344
REMARK  127  A    between atoms: _350  and  _351
REMARK  128  A    between atoms: _356  and  _358
REMARK  129  A    between atoms: _358  and  _359
REMARK  130  A    between atoms: _358  and  _361
REMARK  131  A    between atoms: _361  and  _362
REMARK  132  A    between atoms: _365  and  _367
REMARK  133  A    between atoms: _367  and  _368
REMARK  134  A    between atoms: _367  and  _370
REMARK  135  A    between atoms: _370  and  _371
REMARK  136  A    between atoms: _374  and  _376
REMARK  137  A    between atoms: _376  and  _377
REMARK  138  A    between atoms: _376  and  _379
REMARK  139  A    between atoms: _381  and  _383
REMARK  140  A    between atoms: _383  and  _384
REMARK  141  A    between atoms: _383  and  _386
REMARK  142  A    between atoms: _389  and  _391
REMARK  143  A    between atoms: _391  and  _392
REMARK  144  A    between atoms: _391  and  _394
REMARK  145  A    between atoms: _394  and  _395
REMARK  146  A    between atoms: _405  and  _407
REMARK  147  A    between atoms: _407  and  _408
REMARK  148  A    between atoms: _407  and  _410
REMARK  149  A    between atoms: _410  and  _411
REMARK  150  A    between atoms: _416  and  _418
REMARK  151  A    between atoms: _418  and  _419
REMARK  152  A    between atoms: _418  and  _421
REMARK  153  A    between atoms: _421  and  _422
REMARK  154  A    between atoms: _422  and  _423
REMARK  155  A    between atoms: _423  and  _424
REMARK                            x       y       z     vdW  Elec       q    Type
REMARK                         _______ _______ _______ _____ _____    ______ ____
ROOT
ATOM      1  CG  TRP A   1      -8.951   0.145  24.220  0.00  0.00    -0.002 A 
ATOM      2  CD1 TRP A   1      -7.700   0.680  24.385  0.00  0.00    +0.068 A 
ATOM      3  NE1 TRP A   1      -6.988   0.581  23.205  0.00  0.00    -0.352 N 
ATOM      4  HE1 TRP A   1      -6.015   0.918  23.056  0.00  0.00    +0.166 HD
ATOM      5  CE2 TRP A   1      -7.772  -0.033  22.262  0.00  0.00    +0.056 A 
ATOM      6  CZ2 TRP A   1      -7.492  -0.369  20.932  0.00  0.00    +0.017 A 
ATOM      7  CH2 TRP A   1      -8.480  -0.994  20.215  0.00  0.00    +0.001 A 
ATOM      8  CZ3 TRP A   1      -9.730  -1.285  20.787  0.00  0.00    +0.000 A 
ATOM      9  CE3 TRP A   1     -10.008  -0.951  22.104  0.00  0.00    +0.001 A 
ATOM     10  CD2 TRP A   1      -9.017  -0.317  22.864  0.00  0.00    +0.013 A 
ENDROOT
BRANCH   1  11
ATOM     11  CB  TRP A   1     -10.046   0.049  25.248  0.00  0.00    +0.053 C 
BRANCH  11  12
ATOM     12  CA  TRP A   1     -11.103   1.157  25.113  0.00  0.00    +0.137 C 
BRANCH  12  13
ATOM     13  N   TRP A   1     -10.643   2.349  25.795  0.00  0.00    -0.239 NA
ATOM     14  H   TRP A   1     -10.052   2.259  26.646  0.00  0.00    +0.142 HD
ENDBRANCH  12  13
BRANCH  12  15
ATOM     15  C   TRP A   1     -12.462   0.673  25.619  0.00  0.00    +0.224 C 
ATOM     16  O   TRP A   1     -12.692   0.570  26.824  0.00  0.00    -0.287 OA
ENDBRANCH  12  15
ENDBRANCH  11  12
ENDBRANCH   1  11
TORSDOF 4
REMARK  Name = ../refined-set-2016/1i9q/1i9q_pocket.pdb
REMARK  155 active torsions:
REMARK  status: ('A' for Active; 'I' for Inactive)
REMARK    1  A    between atoms: _1  and  _3
REMARK    2  A    between atoms: _3  and  _4
REMARK    3  A    between atoms: _3  and  _6
REMARK    4  A    between atoms: _6  and  _7
REMARK    5  A    between atoms: _17  and  _19
REMARK    6  A    between atoms: _19  and  _20
REMARK    7  A    between atoms: _19  and  _22
REMARK    8  A    between atoms: _22  and  _23
REMARK    9  A    between atoms: _28  and  _29
REMARK   10  A    between atoms: _31  and  _33
REMARK   11  A    between atoms: _33  and  _34
REMARK   12  A    between atoms: _33  and  _36
REMARK   13  A    between atoms: _36  and  _37
REMARK   14  A    between atoms: _40  and  _41
REMARK   15  A    between atoms: _46  and  _48
REMARK   16  A    between atoms: _48  and  _49
REMARK   17  A    between atoms: _48  and  _51
REMARK   18  A    between atoms: _51  and  _52
REMARK   19  A    between atoms: _57  and  _59
REMARK   20  A    between atoms: _59  and  _60
REMARK   21  A    between atoms: _59  and  _62
REMARK   22  A    between atoms: _62  and  _63
REMARK   23  A    between atoms: _68  and  _70
REMARK   24  A    between atoms: _70  and  _71
REMARK   25  A    between atoms: _74  and  _76
REMARK   26  A    between atoms: _76  and  _77
REMARK   27  A    between atoms: _76  and  _79
REMARK   28  A    between atoms: _79  and  _80
REMARK   29  A    between atoms: _85  and  _87
REMARK   30  A    between atoms: _87  and  _88
REMARK   31  A    between atoms: _87  and  _90
REMARK   32  A    between atoms: _90  and  _91
REMARK   33  A    between atoms: _94  and  _96
REMARK   34  A    between atoms: _96  and  _97
REMARK   35  A    between atoms: _96  and  _99
REMARK   36  A    between atoms: _99  and  _100
REMARK   37  A    between atoms: _100  and  _101
REMARK   38  A    between atoms: _106  and  _108
REMARK   39  A    between atoms: _108  and  _109
REMARK   40  A    between atoms: _108  and  _111
REMARK   41  A    between atoms: _111  and  _112
REMARK   42  A    between atoms: _118  and  _120
REMARK   43  A    between atoms: _131  and  _134
REMARK   44  A    between atoms: _134  and  _135
REMARK   45  A    between atoms: _143  and  _144
REMARK   46  A    between atoms: _152  and  _154
REMARK   47  A    between atoms: _154  and  _155
REMARK   48  A    between atoms: _154  and  _157
REMARK   49  A    between atoms: _157  and  _158
REMARK   50  A    between atoms: _158  and  _159
REMARK   51  A    between atoms: _162  and  _164
REMARK   52  A    between atoms: _164  and  _165
REMARK   53  A    between atoms: _164  and  _167
REMARK   54  A    between atoms: _167  and  _168
REMARK   55  A    between atoms: _173  and  _175
REMARK   56  A    between atoms: _175  and  _176
REMARK   57  A    between atoms: _175  and  _178
REMARK   58  A    between atoms: _178  and  _179
REMARK   59  A    between atoms: _179  and  _180
REMARK   60  A    between atoms: _183  and  _185
REMARK   61  A    between atoms: _185  and  _186
REMARK   62  A    between atoms: _185  and  _188
REMARK   63  A    between atoms: _188  and  _189
REMARK   64  A    between atoms: _192  and  _194
REMARK   65  A    between atoms: _194  and  _195
REMARK   66  A    between atoms: _194  and  _197
REMARK   67  A    between atoms: _197  and  _198
REMARK   68  A    between atoms: _199  and  ZN_433
REMARK   69  A    between atoms: _203  and  _205
REMARK   70  A    between atoms: _205  and  _206
REMARK   71  A    between atoms: _205  and  _208
REMARK   72  A    between atoms: _208  and  _209
REMARK   73  A    between atoms: _212  and  _214
REMARK   74  A    between atoms: _214  and  _215
REMARK   75  A    between atoms: _214  and  _217
REMARK   76  A    between atoms: _220  and  _222
REMARK   77  A    between atoms: _222  and  _223
REMARK   78  A    between atoms: _222  and  _225
REMARK   79  A    between atoms: _225  and  _226
REMARK   80  A    between atoms: _231  and  _233
REMARK   81  A    between atoms: _233  and  _234
REMARK   82  A    between atoms: _233  and  _236
REMARK   83  A    between atoms: _239  and  _241
REMARK   84  A    between atoms: _241  and  _242
REMARK   85  A    between atoms: _244  and  _246
REMARK   86  A    between atoms: _246  and  _247
REMARK   87  A    between atoms: _250  and  _252
REMARK   88  A    between atoms: _252  and  _253
REMARK   89  A    between atoms: _252  and  _255
REMARK   90  A    between atoms: _258  and  _260
REMARK   91  A    between atoms: _260  and  _261
REMARK   92  A    between atoms: _260  and  _263
REMARK   93  A    between atoms: _263  and  _264
REMARK   94  A    between atoms: _264  and  _265
REMARK   95  A    between atoms: _270  and  _272
REMARK   96  A    between atoms: _272  and  _273
REMARK   97  A    between atoms: _272  and  _275
REMARK   98  A    between atoms: _275  and  _276
REMARK   99  A    between atoms: _279  and  _281
REMARK  100  A    between atoms: _281  and  _282
REMARK  101  A    between atoms: _285  and  _287
REMARK  102  A    between atoms: _287  and  _288
REMARK  103  A    between atoms: _287  and  _290
REMARK  104  A    between atoms: _293  and  _295
REMARK  105  A    between atoms: _295  and  _296
REMARK  106  A    between atoms: _295  and  _298
REMARK  107  A    between atoms: _298  and  _299
REMARK  108  A    between atoms: _302  and  _304
REMARK  109  A    between atoms: _304  and  _305
REMARK  110  A    between atoms: _307  and  _309
REMARK  111  A    between atoms: _309  and  _310
REMARK  112  A    between atoms: _309  and  _312
REMARK  113  A    between atoms: _312  and  _313
REMARK  114  A    between atoms: _315  and  _317
REMARK  115  A    between atoms: _317  and  _318
REMARK  116  A    between atoms: _317  and  _320
REMARK  117  A    between atoms: _320  and  _321
REMARK  118  A    between atoms: _324  and  _326
REMARK  119  A    between atoms: _326  and  _327
REMARK  120  A    between atoms: _326  and  _329
REMARK  121  A    between atoms: _329  and  _330
REMARK  122  A    between atoms: _333  and  _335
REMARK  123  A    between atoms: _335  and  _336
REMARK  124  A    between atoms: _335  and  _338
REMARK  125  A    between atoms: _338  and  _339
REMARK  126  A    between atoms: _343  and  _344
REMARK  127  A    between atoms: _350  and  _351
REMARK  128  A    between atoms: _356  and  _358
REMARK  129  A    between atoms: _358  and  _359
REMARK  130  A    between atoms: _358  and  _361
REMARK  131  A    between atoms: _361  and  _362
REMARK  132  A    between atoms: _365  and  _367
REMARK  133  A    between atoms: _367  and  _368
REMARK  134  A    between atoms: _367  and  _370
REMARK  135  A    between atoms: _370  and  _371
REMARK  136  A    between atoms: _374  and  _376
REMARK  137  A    between atoms: _376  and  _377
REMARK  138  A    between atoms: _376  and  _379
REMARK  139  A    between atoms: _381  and  _383
REMARK  140  A    between atoms: _383  and  _384
REMARK  141  A    between atoms: _383  and  _386
REMARK  142  A    between atoms: _389  and  _391
REMARK  143  A    between atoms: _391  and  _392
REMARK  144  A    between atoms: _391  and  _394
REMARK  145  A    between atoms: _394  and  _395
REMARK  146  A    between atoms: _405  and  _407
REMARK  147  A    between atoms: _407  and  _408
REMARK  148  A    between atoms: _407  and  _410
REMARK  149  A    between atoms: _410  and  _411
REMARK  150  A    between atoms: _416  and  _418
REMARK  151  A    between atoms: _418  and  _419
REMARK  152  A    between atoms: _418  and  _421
REMARK  153  A    between atoms: _421  and  _422
REMARK  154  A    between atoms: _422  and  _423
REMARK  155  A    between atoms: _423  and  _424
REMARK                            x       y       z     vdW  Elec       q    Type
REMARK                         _______ _______ _______ _____ _____    ______ ____
ROOT
ATOM      1  CB  ASN A   1      -2.162  -7.169  10.567  0.00  0.00    +0.110 C 
ENDROOT
BRANCH   1   2
ATOM      2  CG  ASN A   1      -3.667  -7.337  10.394  0.00  0.00    +0.221 C 
ATOM      3  OD1 ASN A   1      -4.282  -8.198  11.027  0.00  0.00    -0.275 OA
ATOM      4  ND2 ASN A   1      -4.265  -6.506   9.550  0.00  0.00    -0.329 N 
ATOM      5 HD21 ASN A   1      -5.293  -6.566   9.402  0.00  0.00    +0.145 HD
ATOM      6 HD22 ASN A   1      -3.706  -5.795   9.037  0.00  0.00    +0.145 HD
ENDBRANCH   1   2
BRANCH   1   7
ATOM      7  CA  ASN A   1      -1.592  -8.062  11.671  0.00  0.00    +0.142 C 
BRANCH   7   8
ATOM      8  N   ASN A   1      -1.978  -9.450  11.443  0.00  0.00    -0.239 NA
ATOM      9  H   ASN A   1      -2.892  -9.661  10.995  0.00  0.00    +0.142 HD
ENDBRANCH   7   8
BRANCH   7  10
ATOM     10  C   ASN A   1      -2.141  -7.662  13.048  0.00  0.00    +0.225 C 
ATOM     11  O   ASN A   1      -2.856  -6.669  13.192  0.00  0.00    -0.287 OA
ENDBRANCH   7  10
ENDBRANCH   1   7
TORSDOF 4
REMARK  Name = ../refined-set-2016/1i9q/1i9q_pocket.pdb
REMARK  155 active torsions:
REMARK  status: ('A' for Active; 'I' for Inactive)
REMARK    1  A    between atoms: _1  and  _3
REMARK    2  A    between atoms: _3  and  _4
REMARK    3  A    between atoms: _3  and  _6
REMARK    4  A    between atoms: _6  and  _7
REMARK    5  A    between atoms: _17  and  _19
REMARK    6  A    between atoms: _19  and  _20
REMARK    7  A    between atoms: _19  and  _22
REMARK    8  A    between atoms: _22  and  _23
REMARK    9  A    between atoms: _28  and  _29
REMARK   10  A    between atoms: _31  and  _33
REMARK   11  A    between atoms: _33  and  _34
REMARK   12  A    between atoms: _33  and  _36
REMARK   13  A    between atoms: _36  and  _37
REMARK   14  A    between atoms: _40  and  _41
REMARK   15  A    between atoms: _46  and  _48
REMARK   16  A    between atoms: _48  and  _49
REMARK   17  A    between atoms: _48  and  _51
REMARK   18  A    between atoms: _51  and  _52
REMARK   19  A    between atoms: _57  and  _59
REMARK   20  A    between atoms: _59  and  _60
REMARK   21  A    between atoms: _59  and  _62
REMARK   22  A    between atoms: _62  and  _63
REMARK   23  A    between atoms: _68  and  _70
REMARK   24  A    between atoms: _70  and  _71
REMARK   25  A    between atoms: _74  and  _76
REMARK   26  A    between atoms: _76  and  _77
REMARK   27  A    between atoms: _76  and  _79
REMARK   28  A    between atoms: _79  and  _80
REMARK   29  A    between atoms: _85  and  _87
REMARK   30  A    between atoms: _87  and  _88
REMARK   31  A    between atoms: _87  and  _90
REMARK   32  A    between atoms: _90  and  _91
REMARK   33  A    between atoms: _94  and  _96
REMARK   34  A    between atoms: _96  and  _97
REMARK   35  A    between atoms: _96  and  _99
REMARK   36  A    between atoms: _99  and  _100
REMARK   37  A    between atoms: _100  and  _101
REMARK   38  A    between atoms: _106  and  _108
REMARK   39  A    between atoms: _108  and  _109
REMARK   40  A    between atoms: _108  and  _111
REMARK   41  A    between atoms: _111  and  _112
REMARK   42  A    between atoms: _118  and  _120
REMARK   43  A    between atoms: _131  and  _134
REMARK   44  A    between atoms: _134  and  _135
REMARK   45  A    between atoms: _143  and  _144
REMARK   46  A    between atoms: _152  and  _154
REMARK   47  A    between atoms: _154  and  _155
REMARK   48  A    between atoms: _154  and  _157
REMARK   49  A    between atoms: _157  and  _158
REMARK   50  A    between atoms: _158  and  _159
REMARK   51  A    between atoms: _162  and  _164
REMARK   52  A    between atoms: _164  and  _165
REMARK   53  A    between atoms: _164  and  _167
REMARK   54  A    between atoms: _167  and  _168
REMARK   55  A    between atoms: _173  and  _175
REMARK   56  A    between atoms: _175  and  _176
REMARK   57  A    between atoms: _175  and  _178
REMARK   58  A    between atoms: _178  and  _179
REMARK   59  A    between atoms: _179  and  _180
REMARK   60  A    between atoms: _183  and  _185
REMARK   61  A    between atoms: _185  and  _186
REMARK   62  A    between atoms: _185  and  _188
REMARK   63  A    between atoms: _188  and  _189
REMARK   64  A    between atoms: _192  and  _194
REMARK   65  A    between atoms: _194  and  _195
REMARK   66  A    between atoms: _194  and  _197
REMARK   67  A    between atoms: _197  and  _198
REMARK   68  A    between atoms: _199  and  ZN_433
REMARK   69  A    between atoms: _203  and  _205
REMARK   70  A    between atoms: _205  and  _206
REMARK   71  A    between atoms: _205  and  _208
REMARK   72  A    between atoms: _208  and  _209
REMARK   73  A    between atoms: _212  and  _214
REMARK   74  A    between atoms: _214  and  _215
REMARK   75  A    between atoms: _214  and  _217
REMARK   76  A    between atoms: _220  and  _222
REMARK   77  A    between atoms: _222  and  _223
REMARK   78  A    between atoms: _222  and  _225
REMARK   79  A    between atoms: _225  and  _226
REMARK   80  A    between atoms: _231  and  _233
REMARK   81  A    between atoms: _233  and  _234
REMARK   82  A    between atoms: _233  and  _236
REMARK   83  A    between atoms: _239  and  _241
REMARK   84  A    between atoms: _241  and  _242
REMARK   85  A    between atoms: _244  and  _246
REMARK   86  A    between atoms: _246  and  _247
REMARK   87  A    between atoms: _250  and  _252
REMARK   88  A    between atoms: _252  and  _253
REMARK   89  A    between atoms: _252  and  _255
REMARK   90  A    between atoms: _258  and  _260
REMARK   91  A    between atoms: _260  and  _261
REMARK   92  A    between atoms: _260  and  _263
REMARK   93  A    between atoms: _263  and  _264
REMARK   94  A    between atoms: _264  and  _265
REMARK   95  A    between atoms: _270  and  _272
REMARK   96  A    between atoms: _272  and  _273
REMARK   97  A    between atoms: _272  and  _275
REMARK   98  A    between atoms: _275  and  _276
REMARK   99  A    between atoms: _279  and  _281
REMARK  100  A    between atoms: _281  and  _282
REMARK  101  A    between atoms: _285  and  _287
REMARK  102  A    between atoms: _287  and  _288
REMARK  103  A    between atoms: _287  and  _290
REMARK  104  A    between atoms: _293  and  _295
REMARK  105  A    between atoms: _295  and  _296
REMARK  106  A    between atoms: _295  and  _298
REMARK  107  A    between atoms: _298  and  _299
REMARK  108  A    between atoms: _302  and  _304
REMARK  109  A    between atoms: _304  and  _305
REMARK  110  A    between atoms: _307  and  _309
REMARK  111  A    between atoms: _309  and  _310
REMARK  112  A    between atoms: _309  and  _312
REMARK  113  A    between atoms: _312  and  _313
REMARK  114  A    between atoms: _315  and  _317
REMARK  115  A    between atoms: _317  and  _318
REMARK  116  A    between atoms: _317  and  _320
REMARK  117  A    between atoms: _320  and  _321
REMARK  118  A    between atoms: _324  and  _326
REMARK  119  A    between atoms: _326  and  _327
REMARK  120  A    between atoms: _326  and  _329
REMARK  121  A    between atoms: _329  and  _330
REMARK  122  A    between atoms: _333  and  _335
REMARK  123  A    between atoms: _335  and  _336
REMARK  124  A    between atoms: _335  and  _338
REMARK  125  A    between atoms: _338  and  _339
REMARK  126  A    between atoms: _343  and  _344
REMARK  127  A    between atoms: _350  and  _351
REMARK  128  A    between atoms: _356  and  _358
REMARK  129  A    between atoms: _358  and  _359
REMARK  130  A    between atoms: _358  and  _361
REMARK  131  A    between atoms: _361  and  _362
REMARK  132  A    between atoms: _365  and  _367
REMARK  133  A    between atoms: _367  and  _368
REMARK  134  A    between atoms: _367  and  _370
REMARK  135  A    between atoms: _370  and  _371
REMARK  136  A    between atoms: _374  and  _376
REMARK  137  A    between atoms: _376  and  _377
REMARK  138  A    between atoms: _376  and  _379
REMARK  139  A    between atoms: _381  and  _383
REMARK  140  A    between atoms: _383  and  _384
REMARK  141  A    between atoms: _383  and  _386
REMARK  142  A    between atoms: _389  and  _391
REMARK  143  A    between atoms: _391  and  _392
REMARK  144  A    between atoms: _391  and  _394
REMARK  145  A    between atoms: _394  and  _395
REMARK  146  A    between atoms: _405  and  _407
REMARK  147  A    between atoms: _407  and  _408
REMARK  148  A    between atoms: _407  and  _410
REMARK  149  A    between atoms: _410  and  _411
REMARK  150  A    between atoms: _416  and  _418
REMARK  151  A    between atoms: _418  and  _419
REMARK  152  A    between atoms: _418  and  _421
REMARK  153  A    between atoms: _421  and  _422
REMARK  154  A    between atoms: _422  and  _423
REMARK  155  A    between atoms: _423  and  _424
REMARK                            x       y       z     vdW  Elec       q    Type
REMARK                         _______ _______ _______ _____ _____    ______ ____
ROOT
ATOM      1  NE  ARG A   1       2.012  -3.745  21.225  0.00  0.00    -0.265 N 
ATOM      2  CZ  ARG A   1       2.113  -2.752  22.100  0.00  0.00    +0.342 C 
ATOM      3  NH2 ARG A   1       3.292  -2.487  22.651  0.00  0.00    -0.292 N 
ATOM      4 HH21 ARG A   1       3.382  -1.711  23.338  0.00  0.00    +0.255 HD
ATOM      5 HH22 ARG A   1       4.125  -3.055  22.396  0.00  0.00    +0.255 HD
ATOM      6  NH1 ARG A   1       1.068  -1.990  22.383  0.00  0.00    -0.292 N 
ATOM      7 HH11 ARG A   1       1.160  -1.215  23.070  0.00  0.00    +0.255 HD
ATOM      8 HH12 ARG A   1       0.155  -2.166  21.918  0.00  0.00    +0.255 HD
ATOM      9  HE  ARG A   1       2.860  -4.320  21.047  0.00  0.00    +0.259 HD
ENDROOT
BRANCH   1  10
ATOM     10  CD  ARG A   1       0.801  -4.086  20.498  0.00  0.00    +0.174 C 
BRANCH  10  11
ATOM     11  CG  ARG A   1       0.917  -5.473  19.911  0.00  0.00    +0.045 C 
BRANCH  11  12
ATOM     12  CB  ARG A   1      -0.214  -5.760  18.948  0.00  0.00    +0.029 C 
BRANCH  12  13
ATOM     13  CA  ARG A   1      -0.280  -7.217  18.483  0.00  0.00    +0.133 C 
BRANCH  13  14
ATOM     14  N   ARG A   1      -1.289  -7.363  17.448  0.00  0.00    -0.239 NA
ATOM     15  H   ARG A   1      -2.174  -6.824  17.532  0.00  0.00    +0.142 HD
ENDBRANCH  13  14
BRANCH  13  16
ATOM     16  C   ARG A   1      -0.687  -8.089  19.667  0.00  0.00    +0.224 C 
ATOM     17  O   ARG A   1      -1.860  -8.150  20.026  0.00  0.00    -0.287 OA
ENDBRANCH  13  16
ENDBRANCH  12  13
ENDBRANCH  11  12
ENDBRANCH  10  11
ENDBRANCH   1  10
TORSDOF 6
REMARK  Name = ../refined-set-2016/1i9q/1i9q_pocket.pdb
REMARK  155 active torsions:
REMARK  status: ('A' for Active; 'I' for Inactive)
REMARK    1  A    between atoms: _1  and  _3
REMARK    2  A    between atoms: _3  and  _4
REMARK    3  A    between atoms: _3  and  _6
REMARK    4  A    between atoms: _6  and  _7
REMARK    5  A    between atoms: _17  and  _19
REMARK    6  A    between atoms: _19  and  _20
REMARK    7  A    between atoms: _19  and  _22
REMARK    8  A    between atoms: _22  and  _23
REMARK    9  A    between atoms: _28  and  _29
REMARK   10  A    between atoms: _31  and  _33
REMARK   11  A    between atoms: _33  and  _34
REMARK   12  A    between atoms: _33  and  _36
REMARK   13  A    between atoms: _36  and  _37
REMARK   14  A    between atoms: _40  and  _41
REMARK   15  A    between atoms: _46  and  _48
REMARK   16  A    between atoms: _48  and  _49
REMARK   17  A    between atoms: _48  and  _51
REMARK   18  A    between atoms: _51  and  _52
REMARK   19  A    between atoms: _57  and  _59
REMARK   20  A    between atoms: _59  and  _60
REMARK   21  A    between atoms: _59  and  _62
REMARK   22  A    between atoms: _62  and  _63
REMARK   23  A    between atoms: _68  and  _70
REMARK   24  A    between atoms: _70  and  _71
REMARK   25  A    between atoms: _74  and  _76
REMARK   26  A    between atoms: _76  and  _77
REMARK   27  A    between atoms: _76  and  _79
REMARK   28  A    between atoms: _79  and  _80
REMARK   29  A    between atoms: _85  and  _87
REMARK   30  A    between atoms: _87  and  _88
REMARK   31  A    between atoms: _87  and  _90
REMARK   32  A    between atoms: _90  and  _91
REMARK   33  A    between atoms: _94  and  _96
REMARK   34  A    between atoms: _96  and  _97
REMARK   35  A    between atoms: _96  and  _99
REMARK   36  A    between atoms: _99  and  _100
REMARK   37  A    between atoms: _100  and  _101
REMARK   38  A    between atoms: _106  and  _108
REMARK   39  A    between atoms: _108  and  _109
REMARK   40  A    between atoms: _108  and  _111
REMARK   41  A    between atoms: _111  and  _112
REMARK   42  A    between atoms: _118  and  _120
REMARK   43  A    between atoms: _131  and  _134
REMARK   44  A    between atoms: _134  and  _135
REMARK   45  A    between atoms: _143  and  _144
REMARK   46  A    between atoms: _152  and  _154
REMARK   47  A    between atoms: _154  and  _155
REMARK   48  A    between atoms: _154  and  _157
REMARK   49  A    between atoms: _157  and  _158
REMARK   50  A    between atoms: _158  and  _159
REMARK   51  A    between atoms: _162  and  _164
REMARK   52  A    between atoms: _164  and  _165
REMARK   53  A    between atoms: _164  and  _167
REMARK   54  A    between atoms: _167  and  _168
REMARK   55  A    between atoms: _173  and  _175
REMARK   56  A    between atoms: _175  and  _176
REMARK   57  A    between atoms: _175  and  _178
REMARK   58  A    between atoms: _178  and  _179
REMARK   59  A    between atoms: _179  and  _180
REMARK   60  A    between atoms: _183  and  _185
REMARK   61  A    between atoms: _185  and  _186
REMARK   62  A    between atoms: _185  and  _188
REMARK   63  A    between atoms: _188  and  _189
REMARK   64  A    between atoms: _192  and  _194
REMARK   65  A    between atoms: _194  and  _195
REMARK   66  A    between atoms: _194  and  _197
REMARK   67  A    between atoms: _197  and  _198
REMARK   68  A    between atoms: _199  and  ZN_433
REMARK   69  A    between atoms: _203  and  _205
REMARK   70  A    between atoms: _205  and  _206
REMARK   71  A    between atoms: _205  and  _208
REMARK   72  A    between atoms: _208  and  _209
REMARK   73  A    between atoms: _212  and  _214
REMARK   74  A    between atoms: _214  and  _215
REMARK   75  A    between atoms: _214  and  _217
REMARK   76  A    between atoms: _220  and  _222
REMARK   77  A    between atoms: _222  and  _223
REMARK   78  A    between atoms: _222  and  _225
REMARK   79  A    between atoms: _225  and  _226
REMARK   80  A    between atoms: _231  and  _233
REMARK   81  A    between atoms: _233  and  _234
REMARK   82  A    between atoms: _233  and  _236
REMARK   83  A    between atoms: _239  and  _241
REMARK   84  A    between atoms: _241  and  _242
REMARK   85  A    between atoms: _244  and  _246
REMARK   86  A    between atoms: _246  and  _247
REMARK   87  A    between atoms: _250  and  _252
REMARK   88  A    between atoms: _252  and  _253
REMARK   89  A    between atoms: _252  and  _255
REMARK   90  A    between atoms: _258  and  _260
REMARK   91  A    between atoms: _260  and  _261
REMARK   92  A    between atoms: _260  and  _263
REMARK   93  A    between atoms: _263  and  _264
REMARK   94  A    between atoms: _264  and  _265
REMARK   95  A    between atoms: _270  and  _272
REMARK   96  A    between atoms: _272  and  _273
REMARK   97  A    between atoms: _272  and  _275
REMARK   98  A    between atoms: _275  and  _276
REMARK   99  A    between atoms: _279  and  _281
REMARK  100  A    between atoms: _281  and  _282
REMARK  101  A    between atoms: _285  and  _287
REMARK  102  A    between atoms: _287  and  _288
REMARK  103  A    between atoms: _287  and  _290
REMARK  104  A    between atoms: _293  and  _295
REMARK  105  A    between atoms: _295  and  _296
REMARK  106  A    between atoms: _295  and  _298
REMARK  107  A    between atoms: _298  and  _299
REMARK  108  A    between atoms: _302  and  _304
REMARK  109  A    between atoms: _304  and  _305
REMARK  110  A    between atoms: _307  and  _309
REMARK  111  A    between atoms: _309  and  _310
REMARK  112  A    between atoms: _309  and  _312
REMARK  113  A    between atoms: _312  and  _313
REMARK  114  A    between atoms: _315  and  _317
REMARK  115  A    between atoms: _317  and  _318
REMARK  116  A    between atoms: _317  and  _320
REMARK  117  A    between atoms: _320  and  _321
REMARK  118  A    between atoms: _324  and  _326
REMARK  119  A    between atoms: _326  and  _327
REMARK  120  A    between atoms: _326  and  _329
REMARK  121  A    between atoms: _329  and  _330
REMARK  122  A    between atoms: _333  and  _335
REMARK  123  A    between atoms: _335  and  _336
REMARK  124  A    between atoms: _335  and  _338
REMARK  125  A    between atoms: _338  and  _339
REMARK  126  A    between atoms: _343  and  _344
REMARK  127  A    between atoms: _350  and  _351
REMARK  128  A    between atoms: _356  and  _358
REMARK  129  A    between atoms: _358  and  _359
REMARK  130  A    between atoms: _358  and  _361
REMARK  131  A    between atoms: _361  and  _362
REMARK  132  A    between atoms: _365  and  _367
REMARK  133  A    between atoms: _367  and  _368
REMARK  134  A    between atoms: _367  and  _370
REMARK  135  A    between atoms: _370  and  _371
REMARK  136  A    between atoms: _374  and  _376
REMARK  137  A    between atoms: _376  and  _377
REMARK  138  A    between atoms: _376  and  _379
REMARK  139  A    between atoms: _381  and  _383
REMARK  140  A    between atoms: _383  and  _384
REMARK  141  A    between atoms: _383  and  _386
REMARK  142  A    between atoms: _389  and  _391
REMARK  143  A    between atoms: _391  and  _392
REMARK  144  A    between atoms: _391  and  _394
REMARK  145  A    between atoms: _394  and  _395
REMARK  146  A    between atoms: _405  and  _407
REMARK  147  A    between atoms: _407  and  _408
REMARK  148  A    between atoms: _407  and  _410
REMARK  149  A    between atoms: _410  and  _411
REMARK  150  A    between atoms: _416  and  _418
REMARK  151  A    between atoms: _418  and  _419
REMARK  152  A    between atoms: _418  and  _421
REMARK  153  A    between atoms: _421  and  _422
REMARK  154  A    between atoms: _422  and  _423
REMARK  155  A    between atoms: _423  and  _424
REMARK                            x       y       z     vdW  Elec       q    Type
REMARK                         _______ _______ _______ _____ _____    ______ ____
ROOT
ATOM      1  O   HOH     1      -1.465  -4.036  15.980  0.00  0.00    +0.000 OA
ENDROOT
TORSDOF 0
REMARK  Name = ../refined-set-2016/1i9q/1i9q_pocket.pdb
REMARK  155 active torsions:
REMARK  status: ('A' for Active; 'I' for Inactive)
REMARK    1  A    between atoms: _1  and  _3
REMARK    2  A    between atoms: _3  and  _4
REMARK    3  A    between atoms: _3  and  _6
REMARK    4  A    between atoms: _6  and  _7
REMARK    5  A    between atoms: _17  and  _19
REMARK    6  A    between atoms: _19  and  _20
REMARK    7  A    between atoms: _19  and  _22
REMARK    8  A    between atoms: _22  and  _23
REMARK    9  A    between atoms: _28  and  _29
REMARK   10  A    between atoms: _31  and  _33
REMARK   11  A    between atoms: _33  and  _34
REMARK   12  A    between atoms: _33  and  _36
REMARK   13  A    between atoms: _36  and  _37
REMARK   14  A    between atoms: _40  and  _41
REMARK   15  A    between atoms: _46  and  _48
REMARK   16  A    between atoms: _48  and  _49
REMARK   17  A    between atoms: _48  and  _51
REMARK   18  A    between atoms: _51  and  _52
REMARK   19  A    between atoms: _57  and  _59
REMARK   20  A    between atoms: _59  and  _60
REMARK   21  A    between atoms: _59  and  _62
REMARK   22  A    between atoms: _62  and  _63
REMARK   23  A    between atoms: _68  and  _70
REMARK   24  A    between atoms: _70  and  _71
REMARK   25  A    between atoms: _74  and  _76
REMARK   26  A    between atoms: _76  and  _77
REMARK   27  A    between atoms: _76  and  _79
REMARK   28  A    between atoms: _79  and  _80
REMARK   29  A    between atoms: _85  and  _87
REMARK   30  A    between atoms: _87  and  _88
REMARK   31  A    between atoms: _87  and  _90
REMARK   32  A    between atoms: _90  and  _91
REMARK   33  A    between atoms: _94  and  _96
REMARK   34  A    between atoms: _96  and  _97
REMARK   35  A    between atoms: _96  and  _99
REMARK   36  A    between atoms: _99  and  _100
REMARK   37  A    between atoms: _100  and  _101
REMARK   38  A    between atoms: _106  and  _108
REMARK   39  A    between atoms: _108  and  _109
REMARK   40  A    between atoms: _108  and  _111
REMARK   41  A    between atoms: _111  and  _112
REMARK   42  A    between atoms: _118  and  _120
REMARK   43  A    between atoms: _131  and  _134
REMARK   44  A    between atoms: _134  and  _135
REMARK   45  A    between atoms: _143  and  _144
REMARK   46  A    between atoms: _152  and  _154
REMARK   47  A    between atoms: _154  and  _155
REMARK   48  A    between atoms: _154  and  _157
REMARK   49  A    between atoms: _157  and  _158
REMARK   50  A    between atoms: _158  and  _159
REMARK   51  A    between atoms: _162  and  _164
REMARK   52  A    between atoms: _164  and  _165
REMARK   53  A    between atoms: _164  and  _167
REMARK   54  A    between atoms: _167  and  _168
REMARK   55  A    between atoms: _173  and  _175
REMARK   56  A    between atoms: _175  and  _176
REMARK   57  A    between atoms: _175  and  _178
REMARK   58  A    between atoms: _178  and  _179
REMARK   59  A    between atoms: _179  and  _180
REMARK   60  A    between atoms: _183  and  _185
REMARK   61  A    between atoms: _185  and  _186
REMARK   62  A    between atoms: _185  and  _188
REMARK   63  A    between atoms: _188  and  _189
REMARK   64  A    between atoms: _192  and  _194
REMARK   65  A    between atoms: _194  and  _195
REMARK   66  A    between atoms: _194  and  _197
REMARK   67  A    between atoms: _197  and  _198
REMARK   68  A    between atoms: _199  and  ZN_433
REMARK   69  A    between atoms: _203  and  _205
REMARK   70  A    between atoms: _205  and  _206
REMARK   71  A    between atoms: _205  and  _208
REMARK   72  A    between atoms: _208  and  _209
REMARK   73  A    between atoms: _212  and  _214
REMARK   74  A    between atoms: _214  and  _215
REMARK   75  A    between atoms: _214  and  _217
REMARK   76  A    between atoms: _220  and  _222
REMARK   77  A    between atoms: _222  and  _223
REMARK   78  A    between atoms: _222  and  _225
REMARK   79  A    between atoms: _225  and  _226
REMARK   80  A    between atoms: _231  and  _233
REMARK   81  A    between atoms: _233  and  _234
REMARK   82  A    between atoms: _233  and  _236
REMARK   83  A    between atoms: _239  and  _241
REMARK   84  A    between atoms: _241  and  _242
REMARK   85  A    between atoms: _244  and  _246
REMARK   86  A    between atoms: _246  and  _247
REMARK   87  A    between atoms: _250  and  _252
REMARK   88  A    between atoms: _252  and  _253
REMARK   89  A    between atoms: _252  and  _255
REMARK   90  A    between atoms: _258  and  _260
REMARK   91  A    between atoms: _260  and  _261
REMARK   92  A    between atoms: _260  and  _263
REMARK   93  A    between atoms: _263  and  _264
REMARK   94  A    between atoms: _264  and  _265
REMARK   95  A    between atoms: _270  and  _272
REMARK   96  A    between atoms: _272  and  _273
REMARK   97  A    between atoms: _272  and  _275
REMARK   98  A    between atoms: _275  and  _276
REMARK   99  A    between atoms: _279  and  _281
REMARK  100  A    between atoms: _281  and  _282
REMARK  101  A    between atoms: _285  and  _287
REMARK  102  A    between atoms: _287  and  _288
REMARK  103  A    between atoms: _287  and  _290
REMARK  104  A    between atoms: _293  and  _295
REMARK  105  A    between atoms: _295  and  _296
REMARK  106  A    between atoms: _295  and  _298
REMARK  107  A    between atoms: _298  and  _299
REMARK  108  A    between atoms: _302  and  _304
REMARK  109  A    between atoms: _304  and  _305
REMARK  110  A    between atoms: _307  and  _309
REMARK  111  A    between atoms: _309  and  _310
REMARK  112  A    between atoms: _309  and  _312
REMARK  113  A    between atoms: _312  and  _313
REMARK  114  A    between atoms: _315  and  _317
REMARK  115  A    between atoms: _317  and  _318
REMARK  116  A    between atoms: _317  and  _320
REMARK  117  A    between atoms: _320  and  _321
REMARK  118  A    between atoms: _324  and  _326
REMARK  119  A    between atoms: _326  and  _327
REMARK  120  A    between atoms: _326  and  _329
REMARK  121  A    between atoms: _329  and  _330
REMARK  122  A    between atoms: _333  and  _335
REMARK  123  A    between atoms: _335  and  _336
REMARK  124  A    between atoms: _335  and  _338
REMARK  125  A    between atoms: _338  and  _339
REMARK  126  A    between atoms: _343  and  _344
REMARK  127  A    between atoms: _350  and  _351
REMARK  128  A    between atoms: _356  and  _358
REMARK  129  A    between atoms: _358  and  _359
REMARK  130  A    between atoms: _358  and  _361
REMARK  131  A    between atoms: _361  and  _362
REMARK  132  A    between atoms: _365  and  _367
REMARK  133  A    between atoms: _367  and  _368
REMARK  134  A    between atoms: _367  and  _370
REMARK  135  A    between atoms: _370  and  _371
REMARK  136  A    between atoms: _374  and  _376
REMARK  137  A    between atoms: _376  and  _377
REMARK  138  A    between atoms: _376  and  _379
REMARK  139  A    between atoms: _381  and  _383
REMARK  140  A    between atoms: _383  and  _384
REMARK  141  A    between atoms: _383  and  _386
REMARK  142  A    between atoms: _389  and  _391
REMARK  143  A    between atoms: _391  and  _392
REMARK  144  A    between atoms: _391  and  _394
REMARK  145  A    between atoms: _394  and  _395
REMARK  146  A    between atoms: _405  and  _407
REMARK  147  A    between atoms: _407  and  _408
REMARK  148  A    between atoms: _407  and  _410
REMARK  149  A    between atoms: _410  and  _411
REMARK  150  A    between atoms: _416  and  _418
REMARK  151  A    between atoms: _418  and  _419
REMARK  152  A    between atoms: _418  and  _421
REMARK  153  A    between atoms: _421  and  _422
REMARK  154  A    between atoms: _422  and  _423
REMARK  155  A    between atoms: _423  and  _424
REMARK                            x       y       z     vdW  Elec       q    Type
REMARK                         _______ _______ _______ _____ _____    ______ ____
ROOT
ATOM      1  O   HOH     1      -2.744  -3.084  11.747  0.00  0.00    +0.000 OA
ENDROOT
TORSDOF 0
REMARK  Name = ../refined-set-2016/1i9q/1i9q_pocket.pdb
REMARK  155 active torsions:
REMARK  status: ('A' for Active; 'I' for Inactive)
REMARK    1  A    between atoms: _1  and  _3
REMARK    2  A    between atoms: _3  and  _4
REMARK    3  A    between atoms: _3  and  _6
REMARK    4  A    between atoms: _6  and  _7
REMARK    5  A    between atoms: _17  and  _19
REMARK    6  A    between atoms: _19  and  _20
REMARK    7  A    between atoms: _19  and  _22
REMARK    8  A    between atoms: _22  and  _23
REMARK    9  A    between atoms: _28  and  _29
REMARK   10  A    between atoms: _31  and  _33
REMARK   11  A    between atoms: _33  and  _34
REMARK   12  A    between atoms: _33  and  _36
REMARK   13  A    between atoms: _36  and  _37
REMARK   14  A    between atoms: _40  and  _41
REMARK   15  A    between atoms: _46  and  _48
REMARK   16  A    between atoms: _48  and  _49
REMARK   17  A    between atoms: _48  and  _51
REMARK   18  A    between atoms: _51  and  _52
REMARK   19  A    between atoms: _57  and  _59
REMARK   20  A    between atoms: _59  and  _60
REMARK   21  A    between atoms: _59  and  _62
REMARK   22  A    between atoms: _62  and  _63
REMARK   23  A    between atoms: _68  and  _70
REMARK   24  A    between atoms: _70  and  _71
REMARK   25  A    between atoms: _74  and  _76
REMARK   26  A    between atoms: _76  and  _77
REMARK   27  A    between atoms: _76  and  _79
REMARK   28  A    between atoms: _79  and  _80
REMARK   29  A    between atoms: _85  and  _87
REMARK   30  A    between atoms: _87  and  _88
REMARK   31  A    between atoms: _87  and  _90
REMARK   32  A    between atoms: _90  and  _91
REMARK   33  A    between atoms: _94  and  _96
REMARK   34  A    between atoms: _96  and  _97
REMARK   35  A    between atoms: _96  and  _99
REMARK   36  A    between atoms: _99  and  _100
REMARK   37  A    between atoms: _100  and  _101
REMARK   38  A    between atoms: _106  and  _108
REMARK   39  A    between atoms: _108  and  _109
REMARK   40  A    between atoms: _108  and  _111
REMARK   41  A    between atoms: _111  and  _112
REMARK   42  A    between atoms: _118  and  _120
REMARK   43  A    between atoms: _131  and  _134
REMARK   44  A    between atoms: _134  and  _135
REMARK   45  A    between atoms: _143  and  _144
REMARK   46  A    between atoms: _152  and  _154
REMARK   47  A    between atoms: _154  and  _155
REMARK   48  A    between atoms: _154  and  _157
REMARK   49  A    between atoms: _157  and  _158
REMARK   50  A    between atoms: _158  and  _159
REMARK   51  A    between atoms: _162  and  _164
REMARK   52  A    between atoms: _164  and  _165
REMARK   53  A    between atoms: _164  and  _167
REMARK   54  A    between atoms: _167  and  _168
REMARK   55  A    between atoms: _173  and  _175
REMARK   56  A    between atoms: _175  and  _176
REMARK   57  A    between atoms: _175  and  _178
REMARK   58  A    between atoms: _178  and  _179
REMARK   59  A    between atoms: _179  and  _180
REMARK   60  A    between atoms: _183  and  _185
REMARK   61  A    between atoms: _185  and  _186
REMARK   62  A    between atoms: _185  and  _188
REMARK   63  A    between atoms: _188  and  _189
REMARK   64  A    between atoms: _192  and  _194
REMARK   65  A    between atoms: _194  and  _195
REMARK   66  A    between atoms: _194  and  _197
REMARK   67  A    between atoms: _197  and  _198
REMARK   68  A    between atoms: _199  and  ZN_433
REMARK   69  A    between atoms: _203  and  _205
REMARK   70  A    between atoms: _205  and  _206
REMARK   71  A    between atoms: _205  and  _208
REMARK   72  A    between atoms: _208  and  _209
REMARK   73  A    between atoms: _212  and  _214
REMARK   74  A    between atoms: _214  and  _215
REMARK   75  A    between atoms: _214  and  _217
REMARK   76  A    between atoms: _220  and  _222
REMARK   77  A    between atoms: _222  and  _223
REMARK   78  A    between atoms: _222  and  _225
REMARK   79  A    between atoms: _225  and  _226
REMARK   80  A    between atoms: _231  and  _233
REMARK   81  A    between atoms: _233  and  _234
REMARK   82  A    between atoms: _233  and  _236
REMARK   83  A    between atoms: _239  and  _241
REMARK   84  A    between atoms: _241  and  _242
REMARK   85  A    between atoms: _244  and  _246
REMARK   86  A    between atoms: _246  and  _247
REMARK   87  A    between atoms: _250  and  _252
REMARK   88  A    between atoms: _252  and  _253
REMARK   89  A    between atoms: _252  and  _255
REMARK   90  A    between atoms: _258  and  _260
REMARK   91  A    between atoms: _260  and  _261
REMARK   92  A    between atoms: _260  and  _263
REMARK   93  A    between atoms: _263  and  _264
REMARK   94  A    between atoms: _264  and  _265
REMARK   95  A    between atoms: _270  and  _272
REMARK   96  A    between atoms: _272  and  _273
REMARK   97  A    between atoms: _272  and  _275
REMARK   98  A    between atoms: _275  and  _276
REMARK   99  A    between atoms: _279  and  _281
REMARK  100  A    between atoms: _281  and  _282
REMARK  101  A    between atoms: _285  and  _287
REMARK  102  A    between atoms: _287  and  _288
REMARK  103  A    between atoms: _287  and  _290
REMARK  104  A    between atoms: _293  and  _295
REMARK  105  A    between atoms: _295  and  _296
REMARK  106  A    between atoms: _295  and  _298
REMARK  107  A    between atoms: _298  and  _299
REMARK  108  A    between atoms: _302  and  _304
REMARK  109  A    between atoms: _304  and  _305
REMARK  110  A    between atoms: _307  and  _309
REMARK  111  A    between atoms: _309  and  _310
REMARK  112  A    between atoms: _309  and  _312
REMARK  113  A    between atoms: _312  and  _313
REMARK  114  A    between atoms: _315  and  _317
REMARK  115  A    between atoms: _317  and  _318
REMARK  116  A    between atoms: _317  and  _320
REMARK  117  A    between atoms: _320  and  _321
REMARK  118  A    between atoms: _324  and  _326
REMARK  119  A    between atoms: _326  and  _327
REMARK  120  A    between atoms: _326  and  _329
REMARK  121  A    between atoms: _329  and  _330
REMARK  122  A    between atoms: _333  and  _335
REMARK  123  A    between atoms: _335  and  _336
REMARK  124  A    between atoms: _335  and  _338
REMARK  125  A    between atoms: _338  and  _339
REMARK  126  A    between atoms: _343  and  _344
REMARK  127  A    between atoms: _350  and  _351
REMARK  128  A    between atoms: _356  and  _358
REMARK  129  A    between atoms: _358  and  _359
REMARK  130  A    between atoms: _358  and  _361
REMARK  131  A    between atoms: _361  and  _362
REMARK  132  A    between atoms: _365  and  _367
REMARK  133  A    between atoms: _367  and  _368
REMARK  134  A    between atoms: _367  and  _370
REMARK  135  A    between atoms: _370  and  _371
REMARK  136  A    between atoms: _374  and  _376
REMARK  137  A    between atoms: _376  and  _377
REMARK  138  A    between atoms: _376  and  _379
REMARK  139  A    between atoms: _381  and  _383
REMARK  140  A    between atoms: _383  and  _384
REMARK  141  A    between atoms: _383  and  _386
REMARK  142  A    between atoms: _389  and  _391
REMARK  143  A    between atoms: _391  and  _392
REMARK  144  A    between atoms: _391  and  _394
REMARK  145  A    between atoms: _394  and  _395
REMARK  146  A    between atoms: _405  and  _407
REMARK  147  A    between atoms: _407  and  _408
REMARK  148  A    between atoms: _407  and  _410
REMARK  149  A    between atoms: _410  and  _411
REMARK  150  A    between atoms: _416  and  _418
REMARK  151  A    between atoms: _418  and  _419
REMARK  152  A    between atoms: _418  and  _421
REMARK  153  A    between atoms: _421  and  _422
REMARK  154  A    between atoms: _422  and  _423
REMARK  155  A    between atoms: _423  and  _424
REMARK                            x       y       z     vdW  Elec       q    Type
REMARK                         _______ _______ _______ _____ _____    ______ ____
ROOT
ATOM      1  O   HOH     1      -7.278   6.090   7.078  0.00  0.00    +0.000 OA
ENDROOT
TORSDOF 0
REMARK  Name = ../refined-set-2016/1i9q/1i9q_pocket.pdb
REMARK  155 active torsions:
REMARK  status: ('A' for Active; 'I' for Inactive)
REMARK    1  A    between atoms: _1  and  _3
REMARK    2  A    between atoms: _3  and  _4
REMARK    3  A    between atoms: _3  and  _6
REMARK    4  A    between atoms: _6  and  _7
REMARK    5  A    between atoms: _17  and  _19
REMARK    6  A    between atoms: _19  and  _20
REMARK    7  A    between atoms: _19  and  _22
REMARK    8  A    between atoms: _22  and  _23
REMARK    9  A    between atoms: _28  and  _29
REMARK   10  A    between atoms: _31  and  _33
REMARK   11  A    between atoms: _33  and  _34
REMARK   12  A    between atoms: _33  and  _36
REMARK   13  A    between atoms: _36  and  _37
REMARK   14  A    between atoms: _40  and  _41
REMARK   15  A    between atoms: _46  and  _48
REMARK   16  A    between atoms: _48  and  _49
REMARK   17  A    between atoms: _48  and  _51
REMARK   18  A    between atoms: _51  and  _52
REMARK   19  A    between atoms: _57  and  _59
REMARK   20  A    between atoms: _59  and  _60
REMARK   21  A    between atoms: _59  and  _62
REMARK   22  A    between atoms: _62  and  _63
REMARK   23  A    between atoms: _68  and  _70
REMARK   24  A    between atoms: _70  and  _71
REMARK   25  A    between atoms: _74  and  _76
REMARK   26  A    between atoms: _76  and  _77
REMARK   27  A    between atoms: _76  and  _79
REMARK   28  A    between atoms: _79  and  _80
REMARK   29  A    between atoms: _85  and  _87
REMARK   30  A    between atoms: _87  and  _88
REMARK   31  A    between atoms: _87  and  _90
REMARK   32  A    between atoms: _90  and  _91
REMARK   33  A    between atoms: _94  and  _96
REMARK   34  A    between atoms: _96  and  _97
REMARK   35  A    between atoms: _96  and  _99
REMARK   36  A    between atoms: _99  and  _100
REMARK   37  A    between atoms: _100  and  _101
REMARK   38  A    between atoms: _106  and  _108
REMARK   39  A    between atoms: _108  and  _109
REMARK   40  A    between atoms: _108  and  _111
REMARK   41  A    between atoms: _111  and  _112
REMARK   42  A    between atoms: _118  and  _120
REMARK   43  A    between atoms: _131  and  _134
REMARK   44  A    between atoms: _134  and  _135
REMARK   45  A    between atoms: _143  and  _144
REMARK   46  A    between atoms: _152  and  _154
REMARK   47  A    between atoms: _154  and  _155
REMARK   48  A    between atoms: _154  and  _157
REMARK   49  A    between atoms: _157  and  _158
REMARK   50  A    between atoms: _158  and  _159
REMARK   51  A    between atoms: _162  and  _164
REMARK   52  A    between atoms: _164  and  _165
REMARK   53  A    between atoms: _164  and  _167
REMARK   54  A    between atoms: _167  and  _168
REMARK   55  A    between atoms: _173  and  _175
REMARK   56  A    between atoms: _175  and  _176
REMARK   57  A    between atoms: _175  and  _178
REMARK   58  A    between atoms: _178  and  _179
REMARK   59  A    between atoms: _179  and  _180
REMARK   60  A    between atoms: _183  and  _185
REMARK   61  A    between atoms: _185  and  _186
REMARK   62  A    between atoms: _185  and  _188
REMARK   63  A    between atoms: _188  and  _189
REMARK   64  A    between atoms: _192  and  _194
REMARK   65  A    between atoms: _194  and  _195
REMARK   66  A    between atoms: _194  and  _197
REMARK   67  A    between atoms: _197  and  _198
REMARK   68  A    between atoms: _199  and  ZN_433
REMARK   69  A    between atoms: _203  and  _205
REMARK   70  A    between atoms: _205  and  _206
REMARK   71  A    between atoms: _205  and  _208
REMARK   72  A    between atoms: _208  and  _209
REMARK   73  A    between atoms: _212  and  _214
REMARK   74  A    between atoms: _214  and  _215
REMARK   75  A    between atoms: _214  and  _217
REMARK   76  A    between atoms: _220  and  _222
REMARK   77  A    between atoms: _222  and  _223
REMARK   78  A    between atoms: _222  and  _225
REMARK   79  A    between atoms: _225  and  _226
REMARK   80  A    between atoms: _231  and  _233
REMARK   81  A    between atoms: _233  and  _234
REMARK   82  A    between atoms: _233  and  _236
REMARK   83  A    between atoms: _239  and  _241
REMARK   84  A    between atoms: _241  and  _242
REMARK   85  A    between atoms: _244  and  _246
REMARK   86  A    between atoms: _246  and  _247
REMARK   87  A    between atoms: _250  and  _252
REMARK   88  A    between atoms: _252  and  _253
REMARK   89  A    between atoms: _252  and  _255
REMARK   90  A    between atoms: _258  and  _260
REMARK   91  A    between atoms: _260  and  _261
REMARK   92  A    between atoms: _260  and  _263
REMARK   93  A    between atoms: _263  and  _264
REMARK   94  A    between atoms: _264  and  _265
REMARK   95  A    between atoms: _270  and  _272
REMARK   96  A    between atoms: _272  and  _273
REMARK   97  A    between atoms: _272  and  _275
REMARK   98  A    between atoms: _275  and  _276
REMARK   99  A    between atoms: _279  and  _281
REMARK  100  A    between atoms: _281  and  _282
REMARK  101  A    between atoms: _285  and  _287
REMARK  102  A    between atoms: _287  and  _288
REMARK  103  A    between atoms: _287  and  _290
REMARK  104  A    between atoms: _293  and  _295
REMARK  105  A    between atoms: _295  and  _296
REMARK  106  A    between atoms: _295  and  _298
REMARK  107  A    between atoms: _298  and  _299
REMARK  108  A    between atoms: _302  and  _304
REMARK  109  A    between atoms: _304  and  _305
REMARK  110  A    between atoms: _307  and  _309
REMARK  111  A    between atoms: _309  and  _310
REMARK  112  A    between atoms: _309  and  _312
REMARK  113  A    between atoms: _312  and  _313
REMARK  114  A    between atoms: _315  and  _317
REMARK  115  A    between atoms: _317  and  _318
REMARK  116  A    between atoms: _317  and  _320
REMARK  117  A    between atoms: _320  and  _321
REMARK  118  A    between atoms: _324  and  _326
REMARK  119  A    between atoms: _326  and  _327
REMARK  120  A    between atoms: _326  and  _329
REMARK  121  A    between atoms: _329  and  _330
REMARK  122  A    between atoms: _333  and  _335
REMARK  123  A    between atoms: _335  and  _336
REMARK  124  A    between atoms: _335  and  _338
REMARK  125  A    between atoms: _338  and  _339
REMARK  126  A    between atoms: _343  and  _344
REMARK  127  A    between atoms: _350  and  _351
REMARK  128  A    between atoms: _356  and  _358
REMARK  129  A    between atoms: _358  and  _359
REMARK  130  A    between atoms: _358  and  _361
REMARK  131  A    between atoms: _361  and  _362
REMARK  132  A    between atoms: _365  and  _367
REMARK  133  A    between atoms: _367  and  _368
REMARK  134  A    between atoms: _367  and  _370
REMARK  135  A    between atoms: _370  and  _371
REMARK  136  A    between atoms: _374  and  _376
REMARK  137  A    between atoms: _376  and  _377
REMARK  138  A    between atoms: _376  and  _379
REMARK  139  A    between atoms: _381  and  _383
REMARK  140  A    between atoms: _383  and  _384
REMARK  141  A    between atoms: _383  and  _386
REMARK  142  A    between atoms: _389  and  _391
REMARK  143  A    between atoms: _391  and  _392
REMARK  144  A    between atoms: _391  and  _394
REMARK  145  A    between atoms: _394  and  _395
REMARK  146  A    between atoms: _405  and  _407
REMARK  147  A    between atoms: _407  and  _408
REMARK  148  A    between atoms: _407  and  _410
REMARK  149  A    between atoms: _410  and  _411
REMARK  150  A    between atoms: _416  and  _418
REMARK  151  A    between atoms: _418  and  _419
REMARK  152  A    between atoms: _418  and  _421
REMARK  153  A    between atoms: _421  and  _422
REMARK  154  A    between atoms: _422  and  _423
REMARK  155  A    between atoms: _423  and  _424
REMARK                            x       y       z     vdW  Elec       q    Type
REMARK                         _______ _______ _______ _____ _____    ______ ____
ROOT
ATOM      1  O   HOH     1      -4.475  -0.550  12.518  0.00  0.00    +0.000 OA
ENDROOT
TORSDOF 0
REMARK  Name = ../refined-set-2016/1i9q/1i9q_pocket.pdb
REMARK  155 active torsions:
REMARK  status: ('A' for Active; 'I' for Inactive)
REMARK    1  A    between atoms: _1  and  _3
REMARK    2  A    between atoms: _3  and  _4
REMARK    3  A    between atoms: _3  and  _6
REMARK    4  A    between atoms: _6  and  _7
REMARK    5  A    between atoms: _17  and  _19
REMARK    6  A    between atoms: _19  and  _20
REMARK    7  A    between atoms: _19  and  _22
REMARK    8  A    between atoms: _22  and  _23
REMARK    9  A    between atoms: _28  and  _29
REMARK   10  A    between atoms: _31  and  _33
REMARK   11  A    between atoms: _33  and  _34
REMARK   12  A    between atoms: _33  and  _36
REMARK   13  A    between atoms: _36  and  _37
REMARK   14  A    between atoms: _40  and  _41
REMARK   15  A    between atoms: _46  and  _48
REMARK   16  A    between atoms: _48  and  _49
REMARK   17  A    between atoms: _48  and  _51
REMARK   18  A    between atoms: _51  and  _52
REMARK   19  A    between atoms: _57  and  _59
REMARK   20  A    between atoms: _59  and  _60
REMARK   21  A    between atoms: _59  and  _62
REMARK   22  A    between atoms: _62  and  _63
REMARK   23  A    between atoms: _68  and  _70
REMARK   24  A    between atoms: _70  and  _71
REMARK   25  A    between atoms: _74  and  _76
REMARK   26  A    between atoms: _76  and  _77
REMARK   27  A    between atoms: _76  and  _79
REMARK   28  A    between atoms: _79  and  _80
REMARK   29  A    between atoms: _85  and  _87
REMARK   30  A    between atoms: _87  and  _88
REMARK   31  A    between atoms: _87  and  _90
REMARK   32  A    between atoms: _90  and  _91
REMARK   33  A    between atoms: _94  and  _96
REMARK   34  A    between atoms: _96  and  _97
REMARK   35  A    between atoms: _96  and  _99
REMARK   36  A    between atoms: _99  and  _100
REMARK   37  A    between atoms: _100  and  _101
REMARK   38  A    between atoms: _106  and  _108
REMARK   39  A    between atoms: _108  and  _109
REMARK   40  A    between atoms: _108  and  _111
REMARK   41  A    between atoms: _111  and  _112
REMARK   42  A    between atoms: _118  and  _120
REMARK   43  A    between atoms: _131  and  _134
REMARK   44  A    between atoms: _134  and  _135
REMARK   45  A    between atoms: _143  and  _144
REMARK   46  A    between atoms: _152  and  _154
REMARK   47  A    between atoms: _154  and  _155
REMARK   48  A    between atoms: _154  and  _157
REMARK   49  A    between atoms: _157  and  _158
REMARK   50  A    between atoms: _158  and  _159
REMARK   51  A    between atoms: _162  and  _164
REMARK   52  A    between atoms: _164  and  _165
REMARK   53  A    between atoms: _164  and  _167
REMARK   54  A    between atoms: _167  and  _168
REMARK   55  A    between atoms: _173  and  _175
REMARK   56  A    between atoms: _175  and  _176
REMARK   57  A    between atoms: _175  and  _178
REMARK   58  A    between atoms: _178  and  _179
REMARK   59  A    between atoms: _179  and  _180
REMARK   60  A    between atoms: _183  and  _185
REMARK   61  A    between atoms: _185  and  _186
REMARK   62  A    between atoms: _185  and  _188
REMARK   63  A    between atoms: _188  and  _189
REMARK   64  A    between atoms: _192  and  _194
REMARK   65  A    between atoms: _194  and  _195
REMARK   66  A    between atoms: _194  and  _197
REMARK   67  A    between atoms: _197  and  _198
REMARK   68  A    between atoms: _199  and  ZN_433
REMARK   69  A    between atoms: _203  and  _205
REMARK   70  A    between atoms: _205  and  _206
REMARK   71  A    between atoms: _205  and  _208
REMARK   72  A    between atoms: _208  and  _209
REMARK   73  A    between atoms: _212  and  _214
REMARK   74  A    between atoms: _214  and  _215
REMARK   75  A    between atoms: _214  and  _217
REMARK   76  A    between atoms: _220  and  _222
REMARK   77  A    between atoms: _222  and  _223
REMARK   78  A    between atoms: _222  and  _225
REMARK   79  A    between atoms: _225  and  _226
REMARK   80  A    between atoms: _231  and  _233
REMARK   81  A    between atoms: _233  and  _234
REMARK   82  A    between atoms: _233  and  _236
REMARK   83  A    between atoms: _239  and  _241
REMARK   84  A    between atoms: _241  and  _242
REMARK   85  A    between atoms: _244  and  _246
REMARK   86  A    between atoms: _246  and  _247
REMARK   87  A    between atoms: _250  and  _252
REMARK   88  A    between atoms: _252  and  _253
REMARK   89  A    between atoms: _252  and  _255
REMARK   90  A    between atoms: _258  and  _260
REMARK   91  A    between atoms: _260  and  _261
REMARK   92  A    between atoms: _260  and  _263
REMARK   93  A    between atoms: _263  and  _264
REMARK   94  A    between atoms: _264  and  _265
REMARK   95  A    between atoms: _270  and  _272
REMARK   96  A    between atoms: _272  and  _273
REMARK   97  A    between atoms: _272  and  _275
REMARK   98  A    between atoms: _275  and  _276
REMARK   99  A    between atoms: _279  and  _281
REMARK  100  A    between atoms: _281  and  _282
REMARK  101  A    between atoms: _285  and  _287
REMARK  102  A    between atoms: _287  and  _288
REMARK  103  A    between atoms: _287  and  _290
REMARK  104  A    between atoms: _293  and  _295
REMARK  105  A    between atoms: _295  and  _296
REMARK  106  A    between atoms: _295  and  _298
REMARK  107  A    between atoms: _298  and  _299
REMARK  108  A    between atoms: _302  and  _304
REMARK  109  A    between atoms: _304  and  _305
REMARK  110  A    between atoms: _307  and  _309
REMARK  111  A    between atoms: _309  and  _310
REMARK  112  A    between atoms: _309  and  _312
REMARK  113  A    between atoms: _312  and  _313
REMARK  114  A    between atoms: _315  and  _317
REMARK  115  A    between atoms: _317  and  _318
REMARK  116  A    between atoms: _317  and  _320
REMARK  117  A    between atoms: _320  and  _321
REMARK  118  A    between atoms: _324  and  _326
REMARK  119  A    between atoms: _326  and  _327
REMARK  120  A    between atoms: _326  and  _329
REMARK  121  A    between atoms: _329  and  _330
REMARK  122  A    between atoms: _333  and  _335
REMARK  123  A    between atoms: _335  and  _336
REMARK  124  A    between atoms: _335  and  _338
REMARK  125  A    between atoms: _338  and  _339
REMARK  126  A    between atoms: _343  and  _344
REMARK  127  A    between atoms: _350  and  _351
REMARK  128  A    between atoms: _356  and  _358
REMARK  129  A    between atoms: _358  and  _359
REMARK  130  A    between atoms: _358  and  _361
REMARK  131  A    between atoms: _361  and  _362
REMARK  132  A    between atoms: _365  and  _367
REMARK  133  A    between atoms: _367  and  _368
REMARK  134  A    between atoms: _367  and  _370
REMARK  135  A    between atoms: _370  and  _371
REMARK  136  A    between atoms: _374  and  _376
REMARK  137  A    between atoms: _376  and  _377
REMARK  138  A    between atoms: _376  and  _379
REMARK  139  A    between atoms: _381  and  _383
REMARK  140  A    between atoms: _383  and  _384
REMARK  141  A    between atoms: _383  and  _386
REMARK  142  A    between atoms: _389  and  _391
REMARK  143  A    between atoms: _391  and  _392
REMARK  144  A    between atoms: _391  and  _394
REMARK  145  A    between atoms: _394  and  _395
REMARK  146  A    between atoms: _405  and  _407
REMARK  147  A    between atoms: _407  and  _408
REMARK  148  A    between atoms: _407  and  _410
REMARK  149  A    between atoms: _410  and  _411
REMARK  150  A    between atoms: _416  and  _418
REMARK  151  A    between atoms: _418  and  _419
REMARK  152  A    between atoms: _418  and  _421
REMARK  153  A    between atoms: _421  and  _422
REMARK  154  A    between atoms: _422  and  _423
REMARK  155  A    between atoms: _423  and  _424
REMARK                            x       y       z     vdW  Elec       q    Type
REMARK                         _______ _______ _______ _____ _____    ______ ____
ROOT
ATOM      1  O   HOH     1       5.416   7.282  20.187  0.00  0.00    +0.000 OA
ENDROOT
TORSDOF 0
REMARK  Name = ../refined-set-2016/1i9q/1i9q_pocket.pdb
REMARK  155 active torsions:
REMARK  status: ('A' for Active; 'I' for Inactive)
REMARK    1  A    between atoms: _1  and  _3
REMARK    2  A    between atoms: _3  and  _4
REMARK    3  A    between atoms: _3  and  _6
REMARK    4  A    between atoms: _6  and  _7
REMARK    5  A    between atoms: _17  and  _19
REMARK    6  A    between atoms: _19  and  _20
REMARK    7  A    between atoms: _19  and  _22
REMARK    8  A    between atoms: _22  and  _23
REMARK    9  A    between atoms: _28  and  _29
REMARK   10  A    between atoms: _31  and  _33
REMARK   11  A    between atoms: _33  and  _34
REMARK   12  A    between atoms: _33  and  _36
REMARK   13  A    between atoms: _36  and  _37
REMARK   14  A    between atoms: _40  and  _41
REMARK   15  A    between atoms: _46  and  _48
REMARK   16  A    between atoms: _48  and  _49
REMARK   17  A    between atoms: _48  and  _51
REMARK   18  A    between atoms: _51  and  _52
REMARK   19  A    between atoms: _57  and  _59
REMARK   20  A    between atoms: _59  and  _60
REMARK   21  A    between atoms: _59  and  _62
REMARK   22  A    between atoms: _62  and  _63
REMARK   23  A    between atoms: _68  and  _70
REMARK   24  A    between atoms: _70  and  _71
REMARK   25  A    between atoms: _74  and  _76
REMARK   26  A    between atoms: _76  and  _77
REMARK   27  A    between atoms: _76  and  _79
REMARK   28  A    between atoms: _79  and  _80
REMARK   29  A    between atoms: _85  and  _87
REMARK   30  A    between atoms: _87  and  _88
REMARK   31  A    between atoms: _87  and  _90
REMARK   32  A    between atoms: _90  and  _91
REMARK   33  A    between atoms: _94  and  _96
REMARK   34  A    between atoms: _96  and  _97
REMARK   35  A    between atoms: _96  and  _99
REMARK   36  A    between atoms: _99  and  _100
REMARK   37  A    between atoms: _100  and  _101
REMARK   38  A    between atoms: _106  and  _108
REMARK   39  A    between atoms: _108  and  _109
REMARK   40  A    between atoms: _108  and  _111
REMARK   41  A    between atoms: _111  and  _112
REMARK   42  A    between atoms: _118  and  _120
REMARK   43  A    between atoms: _131  and  _134
REMARK   44  A    between atoms: _134  and  _135
REMARK   45  A    between atoms: _143  and  _144
REMARK   46  A    between atoms: _152  and  _154
REMARK   47  A    between atoms: _154  and  _155
REMARK   48  A    between atoms: _154  and  _157
REMARK   49  A    between atoms: _157  and  _158
REMARK   50  A    between atoms: _158  and  _159
REMARK   51  A    between atoms: _162  and  _164
REMARK   52  A    between atoms: _164  and  _165
REMARK   53  A    between atoms: _164  and  _167
REMARK   54  A    between atoms: _167  and  _168
REMARK   55  A    between atoms: _173  and  _175
REMARK   56  A    between atoms: _175  and  _176
REMARK   57  A    between atoms: _175  and  _178
REMARK   58  A    between atoms: _178  and  _179
REMARK   59  A    between atoms: _179  and  _180
REMARK   60  A    between atoms: _183  and  _185
REMARK   61  A    between atoms: _185  and  _186
REMARK   62  A    between atoms: _185  and  _188
REMARK   63  A    between atoms: _188  and  _189
REMARK   64  A    between atoms: _192  and  _194
REMARK   65  A    between atoms: _194  and  _195
REMARK   66  A    between atoms: _194  and  _197
REMARK   67  A    between atoms: _197  and  _198
REMARK   68  A    between atoms: _199  and  ZN_433
REMARK   69  A    between atoms: _203  and  _205
REMARK   70  A    between atoms: _205  and  _206
REMARK   71  A    between atoms: _205  and  _208
REMARK   72  A    between atoms: _208  and  _209
REMARK   73  A    between atoms: _212  and  _214
REMARK   74  A    between atoms: _214  and  _215
REMARK   75  A    between atoms: _214  and  _217
REMARK   76  A    between atoms: _220  and  _222
REMARK   77  A    between atoms: _222  and  _223
REMARK   78  A    between atoms: _222  and  _225
REMARK   79  A    between atoms: _225  and  _226
REMARK   80  A    between atoms: _231  and  _233
REMARK   81  A    between atoms: _233  and  _234
REMARK   82  A    between atoms: _233  and  _236
REMARK   83  A    between atoms: _239  and  _241
REMARK   84  A    between atoms: _241  and  _242
REMARK   85  A    between atoms: _244  and  _246
REMARK   86  A    between atoms: _246  and  _247
REMARK   87  A    between atoms: _250  and  _252
REMARK   88  A    between atoms: _252  and  _253
REMARK   89  A    between atoms: _252  and  _255
REMARK   90  A    between atoms: _258  and  _260
REMARK   91  A    between atoms: _260  and  _261
REMARK   92  A    between atoms: _260  and  _263
REMARK   93  A    between atoms: _263  and  _264
REMARK   94  A    between atoms: _264  and  _265
REMARK   95  A    between atoms: _270  and  _272
REMARK   96  A    between atoms: _272  and  _273
REMARK   97  A    between atoms: _272  and  _275
REMARK   98  A    between atoms: _275  and  _276
REMARK   99  A    between atoms: _279  and  _281
REMARK  100  A    between atoms: _281  and  _282
REMARK  101  A    between atoms: _285  and  _287
REMARK  102  A    between atoms: _287  and  _288
REMARK  103  A    between atoms: _287  and  _290
REMARK  104  A    between atoms: _293  and  _295
REMARK  105  A    between atoms: _295  and  _296
REMARK  106  A    between atoms: _295  and  _298
REMARK  107  A    between atoms: _298  and  _299
REMARK  108  A    between atoms: _302  and  _304
REMARK  109  A    between atoms: _304  and  _305
REMARK  110  A    between atoms: _307  and  _309
REMARK  111  A    between atoms: _309  and  _310
REMARK  112  A    between atoms: _309  and  _312
REMARK  113  A    between atoms: _312  and  _313
REMARK  114  A    between atoms: _315  and  _317
REMARK  115  A    between atoms: _317  and  _318
REMARK  116  A    between atoms: _317  and  _320
REMARK  117  A    between atoms: _320  and  _321
REMARK  118  A    between atoms: _324  and  _326
REMARK  119  A    between atoms: _326  and  _327
REMARK  120  A    between atoms: _326  and  _329
REMARK  121  A    between atoms: _329  and  _330
REMARK  122  A    between atoms: _333  and  _335
REMARK  123  A    between atoms: _335  and  _336
REMARK  124  A    between atoms: _335  and  _338
REMARK  125  A    between atoms: _338  and  _339
REMARK  126  A    between atoms: _343  and  _344
REMARK  127  A    between atoms: _350  and  _351
REMARK  128  A    between atoms: _356  and  _358
REMARK  129  A    between atoms: _358  and  _359
REMARK  130  A    between atoms: _358  and  _361
REMARK  131  A    between atoms: _361  and  _362
REMARK  132  A    between atoms: _365  and  _367
REMARK  133  A    between atoms: _367  and  _368
REMARK  134  A    between atoms: _367  and  _370
REMARK  135  A    between atoms: _370  and  _371
REMARK  136  A    between atoms: _374  and  _376
REMARK  137  A    between atoms: _376  and  _377
REMARK  138  A    between atoms: _376  and  _379
REMARK  139  A    between atoms: _381  and  _383
REMARK  140  A    between atoms: _383  and  _384
REMARK  141  A    between atoms: _383  and  _386
REMARK  142  A    between atoms: _389  and  _391
REMARK  143  A    between atoms: _391  and  _392
REMARK  144  A    between atoms: _391  and  _394
REMARK  145  A    between atoms: _394  and  _395
REMARK  146  A    between atoms: _405  and  _407
REMARK  147  A    between atoms: _407  and  _408
REMARK  148  A    between atoms: _407  and  _410
REMARK  149  A    between atoms: _410  and  _411
REMARK  150  A    between atoms: _416  and  _418
REMARK  151  A    between atoms: _418  and  _419
REMARK  152  A    between atoms: _418  and  _421
REMARK  153  A    between atoms: _421  and  _422
REMARK  154  A    between atoms: _422  and  _423
REMARK  155  A    between atoms: _423  and  _424
REMARK                            x       y       z     vdW  Elec       q    Type
REMARK                         _______ _______ _______ _____ _____    ______ ____
ROOT
ATOM      1  O   HOH     1      -0.889   3.665  13.075  0.00  0.00    +0.000 OA
ENDROOT
TORSDOF 0
REMARK  Name = ../refined-set-2016/1i9q/1i9q_pocket.pdb
REMARK  155 active torsions:
REMARK  status: ('A' for Active; 'I' for Inactive)
REMARK    1  A    between atoms: _1  and  _3
REMARK    2  A    between atoms: _3  and  _4
REMARK    3  A    between atoms: _3  and  _6
REMARK    4  A    between atoms: _6  and  _7
REMARK    5  A    between atoms: _17  and  _19
REMARK    6  A    between atoms: _19  and  _20
REMARK    7  A    between atoms: _19  and  _22
REMARK    8  A    between atoms: _22  and  _23
REMARK    9  A    between atoms: _28  and  _29
REMARK   10  A    between atoms: _31  and  _33
REMARK   11  A    between atoms: _33  and  _34
REMARK   12  A    between atoms: _33  and  _36
REMARK   13  A    between atoms: _36  and  _37
REMARK   14  A    between atoms: _40  and  _41
REMARK   15  A    between atoms: _46  and  _48
REMARK   16  A    between atoms: _48  and  _49
REMARK   17  A    between atoms: _48  and  _51
REMARK   18  A    between atoms: _51  and  _52
REMARK   19  A    between atoms: _57  and  _59
REMARK   20  A    between atoms: _59  and  _60
REMARK   21  A    between atoms: _59  and  _62
REMARK   22  A    between atoms: _62  and  _63
REMARK   23  A    between atoms: _68  and  _70
REMARK   24  A    between atoms: _70  and  _71
REMARK   25  A    between atoms: _74  and  _76
REMARK   26  A    between atoms: _76  and  _77
REMARK   27  A    between atoms: _76  and  _79
REMARK   28  A    between atoms: _79  and  _80
REMARK   29  A    between atoms: _85  and  _87
REMARK   30  A    between atoms: _87  and  _88
REMARK   31  A    between atoms: _87  and  _90
REMARK   32  A    between atoms: _90  and  _91
REMARK   33  A    between atoms: _94  and  _96
REMARK   34  A    between atoms: _96  and  _97
REMARK   35  A    between atoms: _96  and  _99
REMARK   36  A    between atoms: _99  and  _100
REMARK   37  A    between atoms: _100  and  _101
REMARK   38  A    between atoms: _106  and  _108
REMARK   39  A    between atoms: _108  and  _109
REMARK   40  A    between atoms: _108  and  _111
REMARK   41  A    between atoms: _111  and  _112
REMARK   42  A    between atoms: _118  and  _120
REMARK   43  A    between atoms: _131  and  _134
REMARK   44  A    between atoms: _134  and  _135
REMARK   45  A    between atoms: _143  and  _144
REMARK   46  A    between atoms: _152  and  _154
REMARK   47  A    between atoms: _154  and  _155
REMARK   48  A    between atoms: _154  and  _157
REMARK   49  A    between atoms: _157  and  _158
REMARK   50  A    between atoms: _158  and  _159
REMARK   51  A    between atoms: _162  and  _164
REMARK   52  A    between atoms: _164  and  _165
REMARK   53  A    between atoms: _164  and  _167
REMARK   54  A    between atoms: _167  and  _168
REMARK   55  A    between atoms: _173  and  _175
REMARK   56  A    between atoms: _175  and  _176
REMARK   57  A    between atoms: _175  and  _178
REMARK   58  A    between atoms: _178  and  _179
REMARK   59  A    between atoms: _179  and  _180
REMARK   60  A    between atoms: _183  and  _185
REMARK   61  A    between atoms: _185  and  _186
REMARK   62  A    between atoms: _185  and  _188
REMARK   63  A    between atoms: _188  and  _189
REMARK   64  A    between atoms: _192  and  _194
REMARK   65  A    between atoms: _194  and  _195
REMARK   66  A    between atoms: _194  and  _197
REMARK   67  A    between atoms: _197  and  _198
REMARK   68  A    between atoms: _199  and  ZN_433
REMARK   69  A    between atoms: _203  and  _205
REMARK   70  A    between atoms: _205  and  _206
REMARK   71  A    between atoms: _205  and  _208
REMARK   72  A    between atoms: _208  and  _209
REMARK   73  A    between atoms: _212  and  _214
REMARK   74  A    between atoms: _214  and  _215
REMARK   75  A    between atoms: _214  and  _217
REMARK   76  A    between atoms: _220  and  _222
REMARK   77  A    between atoms: _222  and  _223
REMARK   78  A    between atoms: _222  and  _225
REMARK   79  A    between atoms: _225  and  _226
REMARK   80  A    between atoms: _231  and  _233
REMARK   81  A    between atoms: _233  and  _234
REMARK   82  A    between atoms: _233  and  _236
REMARK   83  A    between atoms: _239  and  _241
REMARK   84  A    between atoms: _241  and  _242
REMARK   85  A    between atoms: _244  and  _246
REMARK   86  A    between atoms: _246  and  _247
REMARK   87  A    between atoms: _250  and  _252
REMARK   88  A    between atoms: _252  and  _253
REMARK   89  A    between atoms: _252  and  _255
REMARK   90  A    between atoms: _258  and  _260
REMARK   91  A    between atoms: _260  and  _261
REMARK   92  A    between atoms: _260  and  _263
REMARK   93  A    between atoms: _263  and  _264
REMARK   94  A    between atoms: _264  and  _265
REMARK   95  A    between atoms: _270  and  _272
REMARK   96  A    between atoms: _272  and  _273
REMARK   97  A    between atoms: _272  and  _275
REMARK   98  A    between atoms: _275  and  _276
REMARK   99  A    between atoms: _279  and  _281
REMARK  100  A    between atoms: _281  and  _282
REMARK  101  A    between atoms: _285  and  _287
REMARK  102  A    between atoms: _287  and  _288
REMARK  103  A    between atoms: _287  and  _290
REMARK  104  A    between atoms: _293  and  _295
REMARK  105  A    between atoms: _295  and  _296
REMARK  106  A    between atoms: _295  and  _298
REMARK  107  A    between atoms: _298  and  _299
REMARK  108  A    between atoms: _302  and  _304
REMARK  109  A    between atoms: _304  and  _305
REMARK  110  A    between atoms: _307  and  _309
REMARK  111  A    between atoms: _309  and  _310
REMARK  112  A    between atoms: _309  and  _312
REMARK  113  A    between atoms: _312  and  _313
REMARK  114  A    between atoms: _315  and  _317
REMARK  115  A    between atoms: _317  and  _318
REMARK  116  A    between atoms: _317  and  _320
REMARK  117  A    between atoms: _320  and  _321
REMARK  118  A    between atoms: _324  and  _326
REMARK  119  A    between atoms: _326  and  _327
REMARK  120  A    between atoms: _326  and  _329
REMARK  121  A    between atoms: _329  and  _330
REMARK  122  A    between atoms: _333  and  _335
REMARK  123  A    between atoms: _335  and  _336
REMARK  124  A    between atoms: _335  and  _338
REMARK  125  A    between atoms: _338  and  _339
REMARK  126  A    between atoms: _343  and  _344
REMARK  127  A    between atoms: _350  and  _351
REMARK  128  A    between atoms: _356  and  _358
REMARK  129  A    between atoms: _358  and  _359
REMARK  130  A    between atoms: _358  and  _361
REMARK  131  A    between atoms: _361  and  _362
REMARK  132  A    between atoms: _365  and  _367
REMARK  133  A    between atoms: _367  and  _368
REMARK  134  A    between atoms: _367  and  _370
REMARK  135  A    between atoms: _370  and  _371
REMARK  136  A    between atoms: _374  and  _376
REMARK  137  A    between atoms: _376  and  _377
REMARK  138  A    between atoms: _376  and  _379
REMARK  139  A    between atoms: _381  and  _383
REMARK  140  A    between atoms: _383  and  _384
REMARK  141  A    between atoms: _383  and  _386
REMARK  142  A    between atoms: _389  and  _391
REMARK  143  A    between atoms: _391  and  _392
REMARK  144  A    between atoms: _391  and  _394
REMARK  145  A    between atoms: _394  and  _395
REMARK  146  A    between atoms: _405  and  _407
REMARK  147  A    between atoms: _407  and  _408
REMARK  148  A    between atoms: _407  and  _410
REMARK  149  A    between atoms: _410  and  _411
REMARK  150  A    between atoms: _416  and  _418
REMARK  151  A    between atoms: _418  and  _419
REMARK  152  A    between atoms: _418  and  _421
REMARK  153  A    between atoms: _421  and  _422
REMARK  154  A    between atoms: _422  and  _423
REMARK  155  A    between atoms: _423  and  _424
REMARK                            x       y       z     vdW  Elec       q    Type
REMARK                         _______ _______ _______ _____ _____    ______ ____
ROOT
ATOM      1  O   HOH     1      -4.781  12.770   7.784  0.00  0.00    +0.000 OA
ENDROOT
TORSDOF 0
REMARK  Name = ../refined-set-2016/1i9q/1i9q_pocket.pdb
REMARK  155 active torsions:
REMARK  status: ('A' for Active; 'I' for Inactive)
REMARK    1  A    between atoms: _1  and  _3
REMARK    2  A    between atoms: _3  and  _4
REMARK    3  A    between atoms: _3  and  _6
REMARK    4  A    between atoms: _6  and  _7
REMARK    5  A    between atoms: _17  and  _19
REMARK    6  A    between atoms: _19  and  _20
REMARK    7  A    between atoms: _19  and  _22
REMARK    8  A    between atoms: _22  and  _23
REMARK    9  A    between atoms: _28  and  _29
REMARK   10  A    between atoms: _31  and  _33
REMARK   11  A    between atoms: _33  and  _34
REMARK   12  A    between atoms: _33  and  _36
REMARK   13  A    between atoms: _36  and  _37
REMARK   14  A    between atoms: _40  and  _41
REMARK   15  A    between atoms: _46  and  _48
REMARK   16  A    between atoms: _48  and  _49
REMARK   17  A    between atoms: _48  and  _51
REMARK   18  A    between atoms: _51  and  _52
REMARK   19  A    between atoms: _57  and  _59
REMARK   20  A    between atoms: _59  and  _60
REMARK   21  A    between atoms: _59  and  _62
REMARK   22  A    between atoms: _62  and  _63
REMARK   23  A    between atoms: _68  and  _70
REMARK   24  A    between atoms: _70  and  _71
REMARK   25  A    between atoms: _74  and  _76
REMARK   26  A    between atoms: _76  and  _77
REMARK   27  A    between atoms: _76  and  _79
REMARK   28  A    between atoms: _79  and  _80
REMARK   29  A    between atoms: _85  and  _87
REMARK   30  A    between atoms: _87  and  _88
REMARK   31  A    between atoms: _87  and  _90
REMARK   32  A    between atoms: _90  and  _91
REMARK   33  A    between atoms: _94  and  _96
REMARK   34  A    between atoms: _96  and  _97
REMARK   35  A    between atoms: _96  and  _99
REMARK   36  A    between atoms: _99  and  _100
REMARK   37  A    between atoms: _100  and  _101
REMARK   38  A    between atoms: _106  and  _108
REMARK   39  A    between atoms: _108  and  _109
REMARK   40  A    between atoms: _108  and  _111
REMARK   41  A    between atoms: _111  and  _112
REMARK   42  A    between atoms: _118  and  _120
REMARK   43  A    between atoms: _131  and  _134
REMARK   44  A    between atoms: _134  and  _135
REMARK   45  A    between atoms: _143  and  _144
REMARK   46  A    between atoms: _152  and  _154
REMARK   47  A    between atoms: _154  and  _155
REMARK   48  A    between atoms: _154  and  _157
REMARK   49  A    between atoms: _157  and  _158
REMARK   50  A    between atoms: _158  and  _159
REMARK   51  A    between atoms: _162  and  _164
REMARK   52  A    between atoms: _164  and  _165
REMARK   53  A    between atoms: _164  and  _167
REMARK   54  A    between atoms: _167  and  _168
REMARK   55  A    between atoms: _173  and  _175
REMARK   56  A    between atoms: _175  and  _176
REMARK   57  A    between atoms: _175  and  _178
REMARK   58  A    between atoms: _178  and  _179
REMARK   59  A    between atoms: _179  and  _180
REMARK   60  A    between atoms: _183  and  _185
REMARK   61  A    between atoms: _185  and  _186
REMARK   62  A    between atoms: _185  and  _188
REMARK   63  A    between atoms: _188  and  _189
REMARK   64  A    between atoms: _192  and  _194
REMARK   65  A    between atoms: _194  and  _195
REMARK   66  A    between atoms: _194  and  _197
REMARK   67  A    between atoms: _197  and  _198
REMARK   68  A    between atoms: _199  and  ZN_433
REMARK   69  A    between atoms: _203  and  _205
REMARK   70  A    between atoms: _205  and  _206
REMARK   71  A    between atoms: _205  and  _208
REMARK   72  A    between atoms: _208  and  _209
REMARK   73  A    between atoms: _212  and  _214
REMARK   74  A    between atoms: _214  and  _215
REMARK   75  A    between atoms: _214  and  _217
REMARK   76  A    between atoms: _220  and  _222
REMARK   77  A    between atoms: _222  and  _223
REMARK   78  A    between atoms: _222  and  _225
REMARK   79  A    between atoms: _225  and  _226
REMARK   80  A    between atoms: _231  and  _233
REMARK   81  A    between atoms: _233  and  _234
REMARK   82  A    between atoms: _233  and  _236
REMARK   83  A    between atoms: _239  and  _241
REMARK   84  A    between atoms: _241  and  _242
REMARK   85  A    between atoms: _244  and  _246
REMARK   86  A    between atoms: _246  and  _247
REMARK   87  A    between atoms: _250  and  _252
REMARK   88  A    between atoms: _252  and  _253
REMARK   89  A    between atoms: _252  and  _255
REMARK   90  A    between atoms: _258  and  _260
REMARK   91  A    between atoms: _260  and  _261
REMARK   92  A    between atoms: _260  and  _263
REMARK   93  A    between atoms: _263  and  _264
REMARK   94  A    between atoms: _264  and  _265
REMARK   95  A    between atoms: _270  and  _272
REMARK   96  A    between atoms: _272  and  _273
REMARK   97  A    between atoms: _272  and  _275
REMARK   98  A    between atoms: _275  and  _276
REMARK   99  A    between atoms: _279  and  _281
REMARK  100  A    between atoms: _281  and  _282
REMARK  101  A    between atoms: _285  and  _287
REMARK  102  A    between atoms: _287  and  _288
REMARK  103  A    between atoms: _287  and  _290
REMARK  104  A    between atoms: _293  and  _295
REMARK  105  A    between atoms: _295  and  _296
REMARK  106  A    between atoms: _295  and  _298
REMARK  107  A    between atoms: _298  and  _299
REMARK  108  A    between atoms: _302  and  _304
REMARK  109  A    between atoms: _304  and  _305
REMARK  110  A    between atoms: _307  and  _309
REMARK  111  A    between atoms: _309  and  _310
REMARK  112  A    between atoms: _309  and  _312
REMARK  113  A    between atoms: _312  and  _313
REMARK  114  A    between atoms: _315  and  _317
REMARK  115  A    between atoms: _317  and  _318
REMARK  116  A    between atoms: _317  and  _320
REMARK  117  A    between atoms: _320  and  _321
REMARK  118  A    between atoms: _324  and  _326
REMARK  119  A    between atoms: _326  and  _327
REMARK  120  A    between atoms: _326  and  _329
REMARK  121  A    between atoms: _329  and  _330
REMARK  122  A    between atoms: _333  and  _335
REMARK  123  A    between atoms: _335  and  _336
REMARK  124  A    between atoms: _335  and  _338
REMARK  125  A    between atoms: _338  and  _339
REMARK  126  A    between atoms: _343  and  _344
REMARK  127  A    between atoms: _350  and  _351
REMARK  128  A    between atoms: _356  and  _358
REMARK  129  A    between atoms: _358  and  _359
REMARK  130  A    between atoms: _358  and  _361
REMARK  131  A    between atoms: _361  and  _362
REMARK  132  A    between atoms: _365  and  _367
REMARK  133  A    between atoms: _367  and  _368
REMARK  134  A    between atoms: _367  and  _370
REMARK  135  A    between atoms: _370  and  _371
REMARK  136  A    between atoms: _374  and  _376
REMARK  137  A    between atoms: _376  and  _377
REMARK  138  A    between atoms: _376  and  _379
REMARK  139  A    between atoms: _381  and  _383
REMARK  140  A    between atoms: _383  and  _384
REMARK  141  A    between atoms: _383  and  _386
REMARK  142  A    between atoms: _389  and  _391
REMARK  143  A    between atoms: _391  and  _392
REMARK  144  A    between atoms: _391  and  _394
REMARK  145  A    between atoms: _394  and  _395
REMARK  146  A    between atoms: _405  and  _407
REMARK  147  A    between atoms: _407  and  _408
REMARK  148  A    between atoms: _407  and  _410
REMARK  149  A    between atoms: _410  and  _411
REMARK  150  A    between atoms: _416  and  _418
REMARK  151  A    between atoms: _418  and  _419
REMARK  152  A    between atoms: _418  and  _421
REMARK  153  A    between atoms: _421  and  _422
REMARK  154  A    between atoms: _422  and  _423
REMARK  155  A    between atoms: _423  and  _424
REMARK                            x       y       z     vdW  Elec       q    Type
REMARK                         _______ _______ _______ _____ _____    ______ ____
ROOT
ATOM      1  O   HOH     1      -2.089  13.830   6.882  0.00  0.00    +0.000 OA
ENDROOT
TORSDOF 0
REMARK  Name = ../refined-set-2016/1i9q/1i9q_pocket.pdb
REMARK  155 active torsions:
REMARK  status: ('A' for Active; 'I' for Inactive)
REMARK    1  A    between atoms: _1  and  _3
REMARK    2  A    between atoms: _3  and  _4
REMARK    3  A    between atoms: _3  and  _6
REMARK    4  A    between atoms: _6  and  _7
REMARK    5  A    between atoms: _17  and  _19
REMARK    6  A    between atoms: _19  and  _20
REMARK    7  A    between atoms: _19  and  _22
REMARK    8  A    between atoms: _22  and  _23
REMARK    9  A    between atoms: _28  and  _29
REMARK   10  A    between atoms: _31  and  _33
REMARK   11  A    between atoms: _33  and  _34
REMARK   12  A    between atoms: _33  and  _36
REMARK   13  A    between atoms: _36  and  _37
REMARK   14  A    between atoms: _40  and  _41
REMARK   15  A    between atoms: _46  and  _48
REMARK   16  A    between atoms: _48  and  _49
REMARK   17  A    between atoms: _48  and  _51
REMARK   18  A    between atoms: _51  and  _52
REMARK   19  A    between atoms: _57  and  _59
REMARK   20  A    between atoms: _59  and  _60
REMARK   21  A    between atoms: _59  and  _62
REMARK   22  A    between atoms: _62  and  _63
REMARK   23  A    between atoms: _68  and  _70
REMARK   24  A    between atoms: _70  and  _71
REMARK   25  A    between atoms: _74  and  _76
REMARK   26  A    between atoms: _76  and  _77
REMARK   27  A    between atoms: _76  and  _79
REMARK   28  A    between atoms: _79  and  _80
REMARK   29  A    between atoms: _85  and  _87
REMARK   30  A    between atoms: _87  and  _88
REMARK   31  A    between atoms: _87  and  _90
REMARK   32  A    between atoms: _90  and  _91
REMARK   33  A    between atoms: _94  and  _96
REMARK   34  A    between atoms: _96  and  _97
REMARK   35  A    between atoms: _96  and  _99
REMARK   36  A    between atoms: _99  and  _100
REMARK   37  A    between atoms: _100  and  _101
REMARK   38  A    between atoms: _106  and  _108
REMARK   39  A    between atoms: _108  and  _109
REMARK   40  A    between atoms: _108  and  _111
REMARK   41  A    between atoms: _111  and  _112
REMARK   42  A    between atoms: _118  and  _120
REMARK   43  A    between atoms: _131  and  _134
REMARK   44  A    between atoms: _134  and  _135
REMARK   45  A    between atoms: _143  and  _144
REMARK   46  A    between atoms: _152  and  _154
REMARK   47  A    between atoms: _154  and  _155
REMARK   48  A    between atoms: _154  and  _157
REMARK   49  A    between atoms: _157  and  _158
REMARK   50  A    between atoms: _158  and  _159
REMARK   51  A    between atoms: _162  and  _164
REMARK   52  A    between atoms: _164  and  _165
REMARK   53  A    between atoms: _164  and  _167
REMARK   54  A    between atoms: _167  and  _168
REMARK   55  A    between atoms: _173  and  _175
REMARK   56  A    between atoms: _175  and  _176
REMARK   57  A    between atoms: _175  and  _178
REMARK   58  A    between atoms: _178  and  _179
REMARK   59  A    between atoms: _179  and  _180
REMARK   60  A    between atoms: _183  and  _185
REMARK   61  A    between atoms: _185  and  _186
REMARK   62  A    between atoms: _185  and  _188
REMARK   63  A    between atoms: _188  and  _189
REMARK   64  A    between atoms: _192  and  _194
REMARK   65  A    between atoms: _194  and  _195
REMARK   66  A    between atoms: _194  and  _197
REMARK   67  A    between atoms: _197  and  _198
REMARK   68  A    between atoms: _199  and  ZN_433
REMARK   69  A    between atoms: _203  and  _205
REMARK   70  A    between atoms: _205  and  _206
REMARK   71  A    between atoms: _205  and  _208
REMARK   72  A    between atoms: _208  and  _209
REMARK   73  A    between atoms: _212  and  _214
REMARK   74  A    between atoms: _214  and  _215
REMARK   75  A    between atoms: _214  and  _217
REMARK   76  A    between atoms: _220  and  _222
REMARK   77  A    between atoms: _222  and  _223
REMARK   78  A    between atoms: _222  and  _225
REMARK   79  A    between atoms: _225  and  _226
REMARK   80  A    between atoms: _231  and  _233
REMARK   81  A    between atoms: _233  and  _234
REMARK   82  A    between atoms: _233  and  _236
REMARK   83  A    between atoms: _239  and  _241
REMARK   84  A    between atoms: _241  and  _242
REMARK   85  A    between atoms: _244  and  _246
REMARK   86  A    between atoms: _246  and  _247
REMARK   87  A    between atoms: _250  and  _252
REMARK   88  A    between atoms: _252  and  _253
REMARK   89  A    between atoms: _252  and  _255
REMARK   90  A    between atoms: _258  and  _260
REMARK   91  A    between atoms: _260  and  _261
REMARK   92  A    between atoms: _260  and  _263
REMARK   93  A    between atoms: _263  and  _264
REMARK   94  A    between atoms: _264  and  _265
REMARK   95  A    between atoms: _270  and  _272
REMARK   96  A    between atoms: _272  and  _273
REMARK   97  A    between atoms: _272  and  _275
REMARK   98  A    between atoms: _275  and  _276
REMARK   99  A    between atoms: _279  and  _281
REMARK  100  A    between atoms: _281  and  _282
REMARK  101  A    between atoms: _285  and  _287
REMARK  102  A    between atoms: _287  and  _288
REMARK  103  A    between atoms: _287  and  _290
REMARK  104  A    between atoms: _293  and  _295
REMARK  105  A    between atoms: _295  and  _296
REMARK  106  A    between atoms: _295  and  _298
REMARK  107  A    between atoms: _298  and  _299
REMARK  108  A    between atoms: _302  and  _304
REMARK  109  A    between atoms: _304  and  _305
REMARK  110  A    between atoms: _307  and  _309
REMARK  111  A    between atoms: _309  and  _310
REMARK  112  A    between atoms: _309  and  _312
REMARK  113  A    between atoms: _312  and  _313
REMARK  114  A    between atoms: _315  and  _317
REMARK  115  A    between atoms: _317  and  _318
REMARK  116  A    between atoms: _317  and  _320
REMARK  117  A    between atoms: _320  and  _321
REMARK  118  A    between atoms: _324  and  _326
REMARK  119  A    between atoms: _326  and  _327
REMARK  120  A    between atoms: _326  and  _329
REMARK  121  A    between atoms: _329  and  _330
REMARK  122  A    between atoms: _333  and  _335
REMARK  123  A    between atoms: _335  and  _336
REMARK  124  A    between atoms: _335  and  _338
REMARK  125  A    between atoms: _338  and  _339
REMARK  126  A    between atoms: _343  and  _344
REMARK  127  A    between atoms: _350  and  _351
REMARK  128  A    between atoms: _356  and  _358
REMARK  129  A    between atoms: _358  and  _359
REMARK  130  A    between atoms: _358  and  _361
REMARK  131  A    between atoms: _361  and  _362
REMARK  132  A    between atoms: _365  and  _367
REMARK  133  A    between atoms: _367  and  _368
REMARK  134  A    between atoms: _367  and  _370
REMARK  135  A    between atoms: _370  and  _371
REMARK  136  A    between atoms: _374  and  _376
REMARK  137  A    between atoms: _376  and  _377
REMARK  138  A    between atoms: _376  and  _379
REMARK  139  A    between atoms: _381  and  _383
REMARK  140  A    between atoms: _383  and  _384
REMARK  141  A    between atoms: _383  and  _386
REMARK  142  A    between atoms: _389  and  _391
REMARK  143  A    between atoms: _391  and  _392
REMARK  144  A    between atoms: _391  and  _394
REMARK  145  A    between atoms: _394  and  _395
REMARK  146  A    between atoms: _405  and  _407
REMARK  147  A    between atoms: _407  and  _408
REMARK  148  A    between atoms: _407  and  _410
REMARK  149  A    between atoms: _410  and  _411
REMARK  150  A    between atoms: _416  and  _418
REMARK  151  A    between atoms: _418  and  _419
REMARK  152  A    between atoms: _418  and  _421
REMARK  153  A    between atoms: _421  and  _422
REMARK  154  A    between atoms: _422  and  _423
REMARK  155  A    between atoms: _423  and  _424
REMARK                            x       y       z     vdW  Elec       q    Type
REMARK                         _______ _______ _______ _____ _____    ______ ____
ROOT
ATOM      1  O   HOH     1      -1.392   2.633  10.392  0.00  0.00    +0.000 OA
ENDROOT
TORSDOF 0
REMARK  Name = ../refined-set-2016/1i9q/1i9q_pocket.pdb
REMARK  155 active torsions:
REMARK  status: ('A' for Active; 'I' for Inactive)
REMARK    1  A    between atoms: _1  and  _3
REMARK    2  A    between atoms: _3  and  _4
REMARK    3  A    between atoms: _3  and  _6
REMARK    4  A    between atoms: _6  and  _7
REMARK    5  A    between atoms: _17  and  _19
REMARK    6  A    between atoms: _19  and  _20
REMARK    7  A    between atoms: _19  and  _22
REMARK    8  A    between atoms: _22  and  _23
REMARK    9  A    between atoms: _28  and  _29
REMARK   10  A    between atoms: _31  and  _33
REMARK   11  A    between atoms: _33  and  _34
REMARK   12  A    between atoms: _33  and  _36
REMARK   13  A    between atoms: _36  and  _37
REMARK   14  A    between atoms: _40  and  _41
REMARK   15  A    between atoms: _46  and  _48
REMARK   16  A    between atoms: _48  and  _49
REMARK   17  A    between atoms: _48  and  _51
REMARK   18  A    between atoms: _51  and  _52
REMARK   19  A    between atoms: _57  and  _59
REMARK   20  A    between atoms: _59  and  _60
REMARK   21  A    between atoms: _59  and  _62
REMARK   22  A    between atoms: _62  and  _63
REMARK   23  A    between atoms: _68  and  _70
REMARK   24  A    between atoms: _70  and  _71
REMARK   25  A    between atoms: _74  and  _76
REMARK   26  A    between atoms: _76  and  _77
REMARK   27  A    between atoms: _76  and  _79
REMARK   28  A    between atoms: _79  and  _80
REMARK   29  A    between atoms: _85  and  _87
REMARK   30  A    between atoms: _87  and  _88
REMARK   31  A    between atoms: _87  and  _90
REMARK   32  A    between atoms: _90  and  _91
REMARK   33  A    between atoms: _94  and  _96
REMARK   34  A    between atoms: _96  and  _97
REMARK   35  A    between atoms: _96  and  _99
REMARK   36  A    between atoms: _99  and  _100
REMARK   37  A    between atoms: _100  and  _101
REMARK   38  A    between atoms: _106  and  _108
REMARK   39  A    between atoms: _108  and  _109
REMARK   40  A    between atoms: _108  and  _111
REMARK   41  A    between atoms: _111  and  _112
REMARK   42  A    between atoms: _118  and  _120
REMARK   43  A    between atoms: _131  and  _134
REMARK   44  A    between atoms: _134  and  _135
REMARK   45  A    between atoms: _143  and  _144
REMARK   46  A    between atoms: _152  and  _154
REMARK   47  A    between atoms: _154  and  _155
REMARK   48  A    between atoms: _154  and  _157
REMARK   49  A    between atoms: _157  and  _158
REMARK   50  A    between atoms: _158  and  _159
REMARK   51  A    between atoms: _162  and  _164
REMARK   52  A    between atoms: _164  and  _165
REMARK   53  A    between atoms: _164  and  _167
REMARK   54  A    between atoms: _167  and  _168
REMARK   55  A    between atoms: _173  and  _175
REMARK   56  A    between atoms: _175  and  _176
REMARK   57  A    between atoms: _175  and  _178
REMARK   58  A    between atoms: _178  and  _179
REMARK   59  A    between atoms: _179  and  _180
REMARK   60  A    between atoms: _183  and  _185
REMARK   61  A    between atoms: _185  and  _186
REMARK   62  A    between atoms: _185  and  _188
REMARK   63  A    between atoms: _188  and  _189
REMARK   64  A    between atoms: _192  and  _194
REMARK   65  A    between atoms: _194  and  _195
REMARK   66  A    between atoms: _194  and  _197
REMARK   67  A    between atoms: _197  and  _198
REMARK   68  A    between atoms: _199  and  ZN_433
REMARK   69  A    between atoms: _203  and  _205
REMARK   70  A    between atoms: _205  and  _206
REMARK   71  A    between atoms: _205  and  _208
REMARK   72  A    between atoms: _208  and  _209
REMARK   73  A    between atoms: _212  and  _214
REMARK   74  A    between atoms: _214  and  _215
REMARK   75  A    between atoms: _214  and  _217
REMARK   76  A    between atoms: _220  and  _222
REMARK   77  A    between atoms: _222  and  _223
REMARK   78  A    between atoms: _222  and  _225
REMARK   79  A    between atoms: _225  and  _226
REMARK   80  A    between atoms: _231  and  _233
REMARK   81  A    between atoms: _233  and  _234
REMARK   82  A    between atoms: _233  and  _236
REMARK   83  A    between atoms: _239  and  _241
REMARK   84  A    between atoms: _241  and  _242
REMARK   85  A    between atoms: _244  and  _246
REMARK   86  A    between atoms: _246  and  _247
REMARK   87  A    between atoms: _250  and  _252
REMARK   88  A    between atoms: _252  and  _253
REMARK   89  A    between atoms: _252  and  _255
REMARK   90  A    between atoms: _258  and  _260
REMARK   91  A    between atoms: _260  and  _261
REMARK   92  A    between atoms: _260  and  _263
REMARK   93  A    between atoms: _263  and  _264
REMARK   94  A    between atoms: _264  and  _265
REMARK   95  A    between atoms: _270  and  _272
REMARK   96  A    between atoms: _272  and  _273
REMARK   97  A    between atoms: _272  and  _275
REMARK   98  A    between atoms: _275  and  _276
REMARK   99  A    between atoms: _279  and  _281
REMARK  100  A    between atoms: _281  and  _282
REMARK  101  A    between atoms: _285  and  _287
REMARK  102  A    between atoms: _287  and  _288
REMARK  103  A    between atoms: _287  and  _290
REMARK  104  A    between atoms: _293  and  _295
REMARK  105  A    between atoms: _295  and  _296
REMARK  106  A    between atoms: _295  and  _298
REMARK  107  A    between atoms: _298  and  _299
REMARK  108  A    between atoms: _302  and  _304
REMARK  109  A    between atoms: _304  and  _305
REMARK  110  A    between atoms: _307  and  _309
REMARK  111  A    between atoms: _309  and  _310
REMARK  112  A    between atoms: _309  and  _312
REMARK  113  A    between atoms: _312  and  _313
REMARK  114  A    between atoms: _315  and  _317
REMARK  115  A    between atoms: _317  and  _318
REMARK  116  A    between atoms: _317  and  _320
REMARK  117  A    between atoms: _320  and  _321
REMARK  118  A    between atoms: _324  and  _326
REMARK  119  A    between atoms: _326  and  _327
REMARK  120  A    between atoms: _326  and  _329
REMARK  121  A    between atoms: _329  and  _330
REMARK  122  A    between atoms: _333  and  _335
REMARK  123  A    between atoms: _335  and  _336
REMARK  124  A    between atoms: _335  and  _338
REMARK  125  A    between atoms: _338  and  _339
REMARK  126  A    between atoms: _343  and  _344
REMARK  127  A    between atoms: _350  and  _351
REMARK  128  A    between atoms: _356  and  _358
REMARK  129  A    between atoms: _358  and  _359
REMARK  130  A    between atoms: _358  and  _361
REMARK  131  A    between atoms: _361  and  _362
REMARK  132  A    between atoms: _365  and  _367
REMARK  133  A    between atoms: _367  and  _368
REMARK  134  A    between atoms: _367  and  _370
REMARK  135  A    between atoms: _370  and  _371
REMARK  136  A    between atoms: _374  and  _376
REMARK  137  A    between atoms: _376  and  _377
REMARK  138  A    between atoms: _376  and  _379
REMARK  139  A    between atoms: _381  and  _383
REMARK  140  A    between atoms: _383  and  _384
REMARK  141  A    between atoms: _383  and  _386
REMARK  142  A    between atoms: _389  and  _391
REMARK  143  A    between atoms: _391  and  _392
REMARK  144  A    between atoms: _391  and  _394
REMARK  145  A    between atoms: _394  and  _395
REMARK  146  A    between atoms: _405  and  _407
REMARK  147  A    between atoms: _407  and  _408
REMARK  148  A    between atoms: _407  and  _410
REMARK  149  A    between atoms: _410  and  _411
REMARK  150  A    between atoms: _416  and  _418
REMARK  151  A    between atoms: _418  and  _419
REMARK  152  A    between atoms: _418  and  _421
REMARK  153  A    between atoms: _421  and  _422
REMARK  154  A    between atoms: _422  and  _423
REMARK  155  A    between atoms: _423  and  _424
REMARK                            x       y       z     vdW  Elec       q    Type
REMARK                         _______ _______ _______ _____ _____    ______ ____
ROOT
ATOM      1  O   HOH     1      -5.407   5.839  10.007  0.00  0.00    +0.000 OA
ENDROOT
TORSDOF 0
REMARK  Name = ../refined-set-2016/1i9q/1i9q_pocket.pdb
REMARK  155 active torsions:
REMARK  status: ('A' for Active; 'I' for Inactive)
REMARK    1  A    between atoms: _1  and  _3
REMARK    2  A    between atoms: _3  and  _4
REMARK    3  A    between atoms: _3  and  _6
REMARK    4  A    between atoms: _6  and  _7
REMARK    5  A    between atoms: _17  and  _19
REMARK    6  A    between atoms: _19  and  _20
REMARK    7  A    between atoms: _19  and  _22
REMARK    8  A    between atoms: _22  and  _23
REMARK    9  A    between atoms: _28  and  _29
REMARK   10  A    between atoms: _31  and  _33
REMARK   11  A    between atoms: _33  and  _34
REMARK   12  A    between atoms: _33  and  _36
REMARK   13  A    between atoms: _36  and  _37
REMARK   14  A    between atoms: _40  and  _41
REMARK   15  A    between atoms: _46  and  _48
REMARK   16  A    between atoms: _48  and  _49
REMARK   17  A    between atoms: _48  and  _51
REMARK   18  A    between atoms: _51  and  _52
REMARK   19  A    between atoms: _57  and  _59
REMARK   20  A    between atoms: _59  and  _60
REMARK   21  A    between atoms: _59  and  _62
REMARK   22  A    between atoms: _62  and  _63
REMARK   23  A    between atoms: _68  and  _70
REMARK   24  A    between atoms: _70  and  _71
REMARK   25  A    between atoms: _74  and  _76
REMARK   26  A    between atoms: _76  and  _77
REMARK   27  A    between atoms: _76  and  _79
REMARK   28  A    between atoms: _79  and  _80
REMARK   29  A    between atoms: _85  and  _87
REMARK   30  A    between atoms: _87  and  _88
REMARK   31  A    between atoms: _87  and  _90
REMARK   32  A    between atoms: _90  and  _91
REMARK   33  A    between atoms: _94  and  _96
REMARK   34  A    between atoms: _96  and  _97
REMARK   35  A    between atoms: _96  and  _99
REMARK   36  A    between atoms: _99  and  _100
REMARK   37  A    between atoms: _100  and  _101
REMARK   38  A    between atoms: _106  and  _108
REMARK   39  A    between atoms: _108  and  _109
REMARK   40  A    between atoms: _108  and  _111
REMARK   41  A    between atoms: _111  and  _112
REMARK   42  A    between atoms: _118  and  _120
REMARK   43  A    between atoms: _131  and  _134
REMARK   44  A    between atoms: _134  and  _135
REMARK   45  A    between atoms: _143  and  _144
REMARK   46  A    between atoms: _152  and  _154
REMARK   47  A    between atoms: _154  and  _155
REMARK   48  A    between atoms: _154  and  _157
REMARK   49  A    between atoms: _157  and  _158
REMARK   50  A    between atoms: _158  and  _159
REMARK   51  A    between atoms: _162  and  _164
REMARK   52  A    between atoms: _164  and  _165
REMARK   53  A    between atoms: _164  and  _167
REMARK   54  A    between atoms: _167  and  _168
REMARK   55  A    between atoms: _173  and  _175
REMARK   56  A    between atoms: _175  and  _176
REMARK   57  A    between atoms: _175  and  _178
REMARK   58  A    between atoms: _178  and  _179
REMARK   59  A    between atoms: _179  and  _180
REMARK   60  A    between atoms: _183  and  _185
REMARK   61  A    between atoms: _185  and  _186
REMARK   62  A    between atoms: _185  and  _188
REMARK   63  A    between atoms: _188  and  _189
REMARK   64  A    between atoms: _192  and  _194
REMARK   65  A    between atoms: _194  and  _195
REMARK   66  A    between atoms: _194  and  _197
REMARK   67  A    between atoms: _197  and  _198
REMARK   68  A    between atoms: _199  and  ZN_433
REMARK   69  A    between atoms: _203  and  _205
REMARK   70  A    between atoms: _205  and  _206
REMARK   71  A    between atoms: _205  and  _208
REMARK   72  A    between atoms: _208  and  _209
REMARK   73  A    between atoms: _212  and  _214
REMARK   74  A    between atoms: _214  and  _215
REMARK   75  A    between atoms: _214  and  _217
REMARK   76  A    between atoms: _220  and  _222
REMARK   77  A    between atoms: _222  and  _223
REMARK   78  A    between atoms: _222  and  _225
REMARK   79  A    between atoms: _225  and  _226
REMARK   80  A    between atoms: _231  and  _233
REMARK   81  A    between atoms: _233  and  _234
REMARK   82  A    between atoms: _233  and  _236
REMARK   83  A    between atoms: _239  and  _241
REMARK   84  A    between atoms: _241  and  _242
REMARK   85  A    between atoms: _244  and  _246
REMARK   86  A    between atoms: _246  and  _247
REMARK   87  A    between atoms: _250  and  _252
REMARK   88  A    between atoms: _252  and  _253
REMARK   89  A    between atoms: _252  and  _255
REMARK   90  A    between atoms: _258  and  _260
REMARK   91  A    between atoms: _260  and  _261
REMARK   92  A    between atoms: _260  and  _263
REMARK   93  A    between atoms: _263  and  _264
REMARK   94  A    between atoms: _264  and  _265
REMARK   95  A    between atoms: _270  and  _272
REMARK   96  A    between atoms: _272  and  _273
REMARK   97  A    between atoms: _272  and  _275
REMARK   98  A    between atoms: _275  and  _276
REMARK   99  A    between atoms: _279  and  _281
REMARK  100  A    between atoms: _281  and  _282
REMARK  101  A    between atoms: _285  and  _287
REMARK  102  A    between atoms: _287  and  _288
REMARK  103  A    between atoms: _287  and  _290
REMARK  104  A    between atoms: _293  and  _295
REMARK  105  A    between atoms: _295  and  _296
REMARK  106  A    between atoms: _295  and  _298
REMARK  107  A    between atoms: _298  and  _299
REMARK  108  A    between atoms: _302  and  _304
REMARK  109  A    between atoms: _304  and  _305
REMARK  110  A    between atoms: _307  and  _309
REMARK  111  A    between atoms: _309  and  _310
REMARK  112  A    between atoms: _309  and  _312
REMARK  113  A    between atoms: _312  and  _313
REMARK  114  A    between atoms: _315  and  _317
REMARK  115  A    between atoms: _317  and  _318
REMARK  116  A    between atoms: _317  and  _320
REMARK  117  A    between atoms: _320  and  _321
REMARK  118  A    between atoms: _324  and  _326
REMARK  119  A    between atoms: _326  and  _327
REMARK  120  A    between atoms: _326  and  _329
REMARK  121  A    between atoms: _329  and  _330
REMARK  122  A    between atoms: _333  and  _335
REMARK  123  A    between atoms: _335  and  _336
REMARK  124  A    between atoms: _335  and  _338
REMARK  125  A    between atoms: _338  and  _339
REMARK  126  A    between atoms: _343  and  _344
REMARK  127  A    between atoms: _350  and  _351
REMARK  128  A    between atoms: _356  and  _358
REMARK  129  A    between atoms: _358  and  _359
REMARK  130  A    between atoms: _358  and  _361
REMARK  131  A    between atoms: _361  and  _362
REMARK  132  A    between atoms: _365  and  _367
REMARK  133  A    between atoms: _367  and  _368
REMARK  134  A    between atoms: _367  and  _370
REMARK  135  A    between atoms: _370  and  _371
REMARK  136  A    between atoms: _374  and  _376
REMARK  137  A    between atoms: _376  and  _377
REMARK  138  A    between atoms: _376  and  _379
REMARK  139  A    between atoms: _381  and  _383
REMARK  140  A    between atoms: _383  and  _384
REMARK  141  A    between atoms: _383  and  _386
REMARK  142  A    between atoms: _389  and  _391
REMARK  143  A    between atoms: _391  and  _392
REMARK  144  A    between atoms: _391  and  _394
REMARK  145  A    between atoms: _394  and  _395
REMARK  146  A    between atoms: _405  and  _407
REMARK  147  A    between atoms: _407  and  _408
REMARK  148  A    between atoms: _407  and  _410
REMARK  149  A    between atoms: _410  and  _411
REMARK  150  A    between atoms: _416  and  _418
REMARK  151  A    between atoms: _418  and  _419
REMARK  152  A    between atoms: _418  and  _421
REMARK  153  A    between atoms: _421  and  _422
REMARK  154  A    between atoms: _422  and  _423
REMARK  155  A    between atoms: _423  and  _424
REMARK                            x       y       z     vdW  Elec       q    Type
REMARK                         _______ _______ _______ _____ _____    ______ ____
ROOT
ATOM      1  O   HOH     1      -5.326   1.356  10.778  0.00  0.00    +0.000 OA
ENDROOT
TORSDOF 0
REMARK  Name = ../refined-set-2016/1i9q/1i9q_pocket.pdb
REMARK  155 active torsions:
REMARK  status: ('A' for Active; 'I' for Inactive)
REMARK    1  A    between atoms: _1  and  _3
REMARK    2  A    between atoms: _3  and  _4
REMARK    3  A    between atoms: _3  and  _6
REMARK    4  A    between atoms: _6  and  _7
REMARK    5  A    between atoms: _17  and  _19
REMARK    6  A    between atoms: _19  and  _20
REMARK    7  A    between atoms: _19  and  _22
REMARK    8  A    between atoms: _22  and  _23
REMARK    9  A    between atoms: _28  and  _29
REMARK   10  A    between atoms: _31  and  _33
REMARK   11  A    between atoms: _33  and  _34
REMARK   12  A    between atoms: _33  and  _36
REMARK   13  A    between atoms: _36  and  _37
REMARK   14  A    between atoms: _40  and  _41
REMARK   15  A    between atoms: _46  and  _48
REMARK   16  A    between atoms: _48  and  _49
REMARK   17  A    between atoms: _48  and  _51
REMARK   18  A    between atoms: _51  and  _52
REMARK   19  A    between atoms: _57  and  _59
REMARK   20  A    between atoms: _59  and  _60
REMARK   21  A    between atoms: _59  and  _62
REMARK   22  A    between atoms: _62  and  _63
REMARK   23  A    between atoms: _68  and  _70
REMARK   24  A    between atoms: _70  and  _71
REMARK   25  A    between atoms: _74  and  _76
REMARK   26  A    between atoms: _76  and  _77
REMARK   27  A    between atoms: _76  and  _79
REMARK   28  A    between atoms: _79  and  _80
REMARK   29  A    between atoms: _85  and  _87
REMARK   30  A    between atoms: _87  and  _88
REMARK   31  A    between atoms: _87  and  _90
REMARK   32  A    between atoms: _90  and  _91
REMARK   33  A    between atoms: _94  and  _96
REMARK   34  A    between atoms: _96  and  _97
REMARK   35  A    between atoms: _96  and  _99
REMARK   36  A    between atoms: _99  and  _100
REMARK   37  A    between atoms: _100  and  _101
REMARK   38  A    between atoms: _106  and  _108
REMARK   39  A    between atoms: _108  and  _109
REMARK   40  A    between atoms: _108  and  _111
REMARK   41  A    between atoms: _111  and  _112
REMARK   42  A    between atoms: _118  and  _120
REMARK   43  A    between atoms: _131  and  _134
REMARK   44  A    between atoms: _134  and  _135
REMARK   45  A    between atoms: _143  and  _144
REMARK   46  A    between atoms: _152  and  _154
REMARK   47  A    between atoms: _154  and  _155
REMARK   48  A    between atoms: _154  and  _157
REMARK   49  A    between atoms: _157  and  _158
REMARK   50  A    between atoms: _158  and  _159
REMARK   51  A    between atoms: _162  and  _164
REMARK   52  A    between atoms: _164  and  _165
REMARK   53  A    between atoms: _164  and  _167
REMARK   54  A    between atoms: _167  and  _168
REMARK   55  A    between atoms: _173  and  _175
REMARK   56  A    between atoms: _175  and  _176
REMARK   57  A    between atoms: _175  and  _178
REMARK   58  A    between atoms: _178  and  _179
REMARK   59  A    between atoms: _179  and  _180
REMARK   60  A    between atoms: _183  and  _185
REMARK   61  A    between atoms: _185  and  _186
REMARK   62  A    between atoms: _185  and  _188
REMARK   63  A    between atoms: _188  and  _189
REMARK   64  A    between atoms: _192  and  _194
REMARK   65  A    between atoms: _194  and  _195
REMARK   66  A    between atoms: _194  and  _197
REMARK   67  A    between atoms: _197  and  _198
REMARK   68  A    between atoms: _199  and  ZN_433
REMARK   69  A    between atoms: _203  and  _205
REMARK   70  A    between atoms: _205  and  _206
REMARK   71  A    between atoms: _205  and  _208
REMARK   72  A    between atoms: _208  and  _209
REMARK   73  A    between atoms: _212  and  _214
REMARK   74  A    between atoms: _214  and  _215
REMARK   75  A    between atoms: _214  and  _217
REMARK   76  A    between atoms: _220  and  _222
REMARK   77  A    between atoms: _222  and  _223
REMARK   78  A    between atoms: _222  and  _225
REMARK   79  A    between atoms: _225  and  _226
REMARK   80  A    between atoms: _231  and  _233
REMARK   81  A    between atoms: _233  and  _234
REMARK   82  A    between atoms: _233  and  _236
REMARK   83  A    between atoms: _239  and  _241
REMARK   84  A    between atoms: _241  and  _242
REMARK   85  A    between atoms: _244  and  _246
REMARK   86  A    between atoms: _246  and  _247
REMARK   87  A    between atoms: _250  and  _252
REMARK   88  A    between atoms: _252  and  _253
REMARK   89  A    between atoms: _252  and  _255
REMARK   90  A    between atoms: _258  and  _260
REMARK   91  A    between atoms: _260  and  _261
REMARK   92  A    between atoms: _260  and  _263
REMARK   93  A    between atoms: _263  and  _264
REMARK   94  A    between atoms: _264  and  _265
REMARK   95  A    between atoms: _270  and  _272
REMARK   96  A    between atoms: _272  and  _273
REMARK   97  A    between atoms: _272  and  _275
REMARK   98  A    between atoms: _275  and  _276
REMARK   99  A    between atoms: _279  and  _281
REMARK  100  A    between atoms: _281  and  _282
REMARK  101  A    between atoms: _285  and  _287
REMARK  102  A    between atoms: _287  and  _288
REMARK  103  A    between atoms: _287  and  _290
REMARK  104  A    between atoms: _293  and  _295
REMARK  105  A    between atoms: _295  and  _296
REMARK  106  A    between atoms: _295  and  _298
REMARK  107  A    between atoms: _298  and  _299
REMARK  108  A    between atoms: _302  and  _304
REMARK  109  A    between atoms: _304  and  _305
REMARK  110  A    between atoms: _307  and  _309
REMARK  111  A    between atoms: _309  and  _310
REMARK  112  A    between atoms: _309  and  _312
REMARK  113  A    between atoms: _312  and  _313
REMARK  114  A    between atoms: _315  and  _317
REMARK  115  A    between atoms: _317  and  _318
REMARK  116  A    between atoms: _317  and  _320
REMARK  117  A    between atoms: _320  and  _321
REMARK  118  A    between atoms: _324  and  _326
REMARK  119  A    between atoms: _326  and  _327
REMARK  120  A    between atoms: _326  and  _329
REMARK  121  A    between atoms: _329  and  _330
REMARK  122  A    between atoms: _333  and  _335
REMARK  123  A    between atoms: _335  and  _336
REMARK  124  A    between atoms: _335  and  _338
REMARK  125  A    between atoms: _338  and  _339
REMARK  126  A    between atoms: _343  and  _344
REMARK  127  A    between atoms: _350  and  _351
REMARK  128  A    between atoms: _356  and  _358
REMARK  129  A    between atoms: _358  and  _359
REMARK  130  A    between atoms: _358  and  _361
REMARK  131  A    between atoms: _361  and  _362
REMARK  132  A    between atoms: _365  and  _367
REMARK  133  A    between atoms: _367  and  _368
REMARK  134  A    between atoms: _367  and  _370
REMARK  135  A    between atoms: _370  and  _371
REMARK  136  A    between atoms: _374  and  _376
REMARK  137  A    between atoms: _376  and  _377
REMARK  138  A    between atoms: _376  and  _379
REMARK  139  A    between atoms: _381  and  _383
REMARK  140  A    between atoms: _383  and  _384
REMARK  141  A    between atoms: _383  and  _386
REMARK  142  A    between atoms: _389  and  _391
REMARK  143  A    between atoms: _391  and  _392
REMARK  144  A    between atoms: _391  and  _394
REMARK  145  A    between atoms: _394  and  _395
REMARK  146  A    between atoms: _405  and  _407
REMARK  147  A    between atoms: _407  and  _408
REMARK  148  A    between atoms: _407  and  _410
REMARK  149  A    between atoms: _410  and  _411
REMARK  150  A    between atoms: _416  and  _418
REMARK  151  A    between atoms: _418  and  _419
REMARK  152  A    between atoms: _418  and  _421
REMARK  153  A    between atoms: _421  and  _422
REMARK  154  A    between atoms: _422  and  _423
REMARK  155  A    between atoms: _423  and  _424
REMARK                            x       y       z     vdW  Elec       q    Type
REMARK                         _______ _______ _______ _____ _____    ______ ____
ROOT
ATOM      1  O   HOH     1       0.257   4.568   9.221  0.00  0.00    +0.000 OA
ENDROOT
TORSDOF 0
REMARK  Name = ../refined-set-2016/1i9q/1i9q_pocket.pdb
REMARK  155 active torsions:
REMARK  status: ('A' for Active; 'I' for Inactive)
REMARK    1  A    between atoms: _1  and  _3
REMARK    2  A    between atoms: _3  and  _4
REMARK    3  A    between atoms: _3  and  _6
REMARK    4  A    between atoms: _6  and  _7
REMARK    5  A    between atoms: _17  and  _19
REMARK    6  A    between atoms: _19  and  _20
REMARK    7  A    between atoms: _19  and  _22
REMARK    8  A    between atoms: _22  and  _23
REMARK    9  A    between atoms: _28  and  _29
REMARK   10  A    between atoms: _31  and  _33
REMARK   11  A    between atoms: _33  and  _34
REMARK   12  A    between atoms: _33  and  _36
REMARK   13  A    between atoms: _36  and  _37
REMARK   14  A    between atoms: _40  and  _41
REMARK   15  A    between atoms: _46  and  _48
REMARK   16  A    between atoms: _48  and  _49
REMARK   17  A    between atoms: _48  and  _51
REMARK   18  A    between atoms: _51  and  _52
REMARK   19  A    between atoms: _57  and  _59
REMARK   20  A    between atoms: _59  and  _60
REMARK   21  A    between atoms: _59  and  _62
REMARK   22  A    between atoms: _62  and  _63
REMARK   23  A    between atoms: _68  and  _70
REMARK   24  A    between atoms: _70  and  _71
REMARK   25  A    between atoms: _74  and  _76
REMARK   26  A    between atoms: _76  and  _77
REMARK   27  A    between atoms: _76  and  _79
REMARK   28  A    between atoms: _79  and  _80
REMARK   29  A    between atoms: _85  and  _87
REMARK   30  A    between atoms: _87  and  _88
REMARK   31  A    between atoms: _87  and  _90
REMARK   32  A    between atoms: _90  and  _91
REMARK   33  A    between atoms: _94  and  _96
REMARK   34  A    between atoms: _96  and  _97
REMARK   35  A    between atoms: _96  and  _99
REMARK   36  A    between atoms: _99  and  _100
REMARK   37  A    between atoms: _100  and  _101
REMARK   38  A    between atoms: _106  and  _108
REMARK   39  A    between atoms: _108  and  _109
REMARK   40  A    between atoms: _108  and  _111
REMARK   41  A    between atoms: _111  and  _112
REMARK   42  A    between atoms: _118  and  _120
REMARK   43  A    between atoms: _131  and  _134
REMARK   44  A    between atoms: _134  and  _135
REMARK   45  A    between atoms: _143  and  _144
REMARK   46  A    between atoms: _152  and  _154
REMARK   47  A    between atoms: _154  and  _155
REMARK   48  A    between atoms: _154  and  _157
REMARK   49  A    between atoms: _157  and  _158
REMARK   50  A    between atoms: _158  and  _159
REMARK   51  A    between atoms: _162  and  _164
REMARK   52  A    between atoms: _164  and  _165
REMARK   53  A    between atoms: _164  and  _167
REMARK   54  A    between atoms: _167  and  _168
REMARK   55  A    between atoms: _173  and  _175
REMARK   56  A    between atoms: _175  and  _176
REMARK   57  A    between atoms: _175  and  _178
REMARK   58  A    between atoms: _178  and  _179
REMARK   59  A    between atoms: _179  and  _180
REMARK   60  A    between atoms: _183  and  _185
REMARK   61  A    between atoms: _185  and  _186
REMARK   62  A    between atoms: _185  and  _188
REMARK   63  A    between atoms: _188  and  _189
REMARK   64  A    between atoms: _192  and  _194
REMARK   65  A    between atoms: _194  and  _195
REMARK   66  A    between atoms: _194  and  _197
REMARK   67  A    between atoms: _197  and  _198
REMARK   68  A    between atoms: _199  and  ZN_433
REMARK   69  A    between atoms: _203  and  _205
REMARK   70  A    between atoms: _205  and  _206
REMARK   71  A    between atoms: _205  and  _208
REMARK   72  A    between atoms: _208  and  _209
REMARK   73  A    between atoms: _212  and  _214
REMARK   74  A    between atoms: _214  and  _215
REMARK   75  A    between atoms: _214  and  _217
REMARK   76  A    between atoms: _220  and  _222
REMARK   77  A    between atoms: _222  and  _223
REMARK   78  A    between atoms: _222  and  _225
REMARK   79  A    between atoms: _225  and  _226
REMARK   80  A    between atoms: _231  and  _233
REMARK   81  A    between atoms: _233  and  _234
REMARK   82  A    between atoms: _233  and  _236
REMARK   83  A    between atoms: _239  and  _241
REMARK   84  A    between atoms: _241  and  _242
REMARK   85  A    between atoms: _244  and  _246
REMARK   86  A    between atoms: _246  and  _247
REMARK   87  A    between atoms: _250  and  _252
REMARK   88  A    between atoms: _252  and  _253
REMARK   89  A    between atoms: _252  and  _255
REMARK   90  A    between atoms: _258  and  _260
REMARK   91  A    between atoms: _260  and  _261
REMARK   92  A    between atoms: _260  and  _263
REMARK   93  A    between atoms: _263  and  _264
REMARK   94  A    between atoms: _264  and  _265
REMARK   95  A    between atoms: _270  and  _272
REMARK   96  A    between atoms: _272  and  _273
REMARK   97  A    between atoms: _272  and  _275
REMARK   98  A    between atoms: _275  and  _276
REMARK   99  A    between atoms: _279  and  _281
REMARK  100  A    between atoms: _281  and  _282
REMARK  101  A    between atoms: _285  and  _287
REMARK  102  A    between atoms: _287  and  _288
REMARK  103  A    between atoms: _287  and  _290
REMARK  104  A    between atoms: _293  and  _295
REMARK  105  A    between atoms: _295  and  _296
REMARK  106  A    between atoms: _295  and  _298
REMARK  107  A    between atoms: _298  and  _299
REMARK  108  A    between atoms: _302  and  _304
REMARK  109  A    between atoms: _304  and  _305
REMARK  110  A    between atoms: _307  and  _309
REMARK  111  A    between atoms: _309  and  _310
REMARK  112  A    between atoms: _309  and  _312
REMARK  113  A    between atoms: _312  and  _313
REMARK  114  A    between atoms: _315  and  _317
REMARK  115  A    between atoms: _317  and  _318
REMARK  116  A    between atoms: _317  and  _320
REMARK  117  A    between atoms: _320  and  _321
REMARK  118  A    between atoms: _324  and  _326
REMARK  119  A    between atoms: _326  and  _327
REMARK  120  A    between atoms: _326  and  _329
REMARK  121  A    between atoms: _329  and  _330
REMARK  122  A    between atoms: _333  and  _335
REMARK  123  A    between atoms: _335  and  _336
REMARK  124  A    between atoms: _335  and  _338
REMARK  125  A    between atoms: _338  and  _339
REMARK  126  A    between atoms: _343  and  _344
REMARK  127  A    between atoms: _350  and  _351
REMARK  128  A    between atoms: _356  and  _358
REMARK  129  A    between atoms: _358  and  _359
REMARK  130  A    between atoms: _358  and  _361
REMARK  131  A    between atoms: _361  and  _362
REMARK  132  A    between atoms: _365  and  _367
REMARK  133  A    between atoms: _367  and  _368
REMARK  134  A    between atoms: _367  and  _370
REMARK  135  A    between atoms: _370  and  _371
REMARK  136  A    between atoms: _374  and  _376
REMARK  137  A    between atoms: _376  and  _377
REMARK  138  A    between atoms: _376  and  _379
REMARK  139  A    between atoms: _381  and  _383
REMARK  140  A    between atoms: _383  and  _384
REMARK  141  A    between atoms: _383  and  _386
REMARK  142  A    between atoms: _389  and  _391
REMARK  143  A    between atoms: _391  and  _392
REMARK  144  A    between atoms: _391  and  _394
REMARK  145  A    between atoms: _394  and  _395
REMARK  146  A    between atoms: _405  and  _407
REMARK  147  A    between atoms: _407  and  _408
REMARK  148  A    between atoms: _407  and  _410
REMARK  149  A    between atoms: _410  and  _411
REMARK  150  A    between atoms: _416  and  _418
REMARK  151  A    between atoms: _418  and  _419
REMARK  152  A    between atoms: _418  and  _421
REMARK  153  A    between atoms: _421  and  _422
REMARK  154  A    between atoms: _422  and  _423
REMARK  155  A    between atoms: _423  and  _424
REMARK                            x       y       z     vdW  Elec       q    Type
REMARK                         _______ _______ _______ _____ _____    ______ ____
ROOT
ATOM      1  O   HOH     1      -1.820   9.860  23.260  0.00  0.00    +0.000 OA
ENDROOT
TORSDOF 0
REMARK  Name = ../refined-set-2016/1i9q/1i9q_pocket.pdb
REMARK  155 active torsions:
REMARK  status: ('A' for Active; 'I' for Inactive)
REMARK    1  A    between atoms: _1  and  _3
REMARK    2  A    between atoms: _3  and  _4
REMARK    3  A    between atoms: _3  and  _6
REMARK    4  A    between atoms: _6  and  _7
REMARK    5  A    between atoms: _17  and  _19
REMARK    6  A    between atoms: _19  and  _20
REMARK    7  A    between atoms: _19  and  _22
REMARK    8  A    between atoms: _22  and  _23
REMARK    9  A    between atoms: _28  and  _29
REMARK   10  A    between atoms: _31  and  _33
REMARK   11  A    between atoms: _33  and  _34
REMARK   12  A    between atoms: _33  and  _36
REMARK   13  A    between atoms: _36  and  _37
REMARK   14  A    between atoms: _40  and  _41
REMARK   15  A    between atoms: _46  and  _48
REMARK   16  A    between atoms: _48  and  _49
REMARK   17  A    between atoms: _48  and  _51
REMARK   18  A    between atoms: _51  and  _52
REMARK   19  A    between atoms: _57  and  _59
REMARK   20  A    between atoms: _59  and  _60
REMARK   21  A    between atoms: _59  and  _62
REMARK   22  A    between atoms: _62  and  _63
REMARK   23  A    between atoms: _68  and  _70
REMARK   24  A    between atoms: _70  and  _71
REMARK   25  A    between atoms: _74  and  _76
REMARK   26  A    between atoms: _76  and  _77
REMARK   27  A    between atoms: _76  and  _79
REMARK   28  A    between atoms: _79  and  _80
REMARK   29  A    between atoms: _85  and  _87
REMARK   30  A    between atoms: _87  and  _88
REMARK   31  A    between atoms: _87  and  _90
REMARK   32  A    between atoms: _90  and  _91
REMARK   33  A    between atoms: _94  and  _96
REMARK   34  A    between atoms: _96  and  _97
REMARK   35  A    between atoms: _96  and  _99
REMARK   36  A    between atoms: _99  and  _100
REMARK   37  A    between atoms: _100  and  _101
REMARK   38  A    between atoms: _106  and  _108
REMARK   39  A    between atoms: _108  and  _109
REMARK   40  A    between atoms: _108  and  _111
REMARK   41  A    between atoms: _111  and  _112
REMARK   42  A    between atoms: _118  and  _120
REMARK   43  A    between atoms: _131  and  _134
REMARK   44  A    between atoms: _134  and  _135
REMARK   45  A    between atoms: _143  and  _144
REMARK   46  A    between atoms: _152  and  _154
REMARK   47  A    between atoms: _154  and  _155
REMARK   48  A    between atoms: _154  and  _157
REMARK   49  A    between atoms: _157  and  _158
REMARK   50  A    between atoms: _158  and  _159
REMARK   51  A    between atoms: _162  and  _164
REMARK   52  A    between atoms: _164  and  _165
REMARK   53  A    between atoms: _164  and  _167
REMARK   54  A    between atoms: _167  and  _168
REMARK   55  A    between atoms: _173  and  _175
REMARK   56  A    between atoms: _175  and  _176
REMARK   57  A    between atoms: _175  and  _178
REMARK   58  A    between atoms: _178  and  _179
REMARK   59  A    between atoms: _179  and  _180
REMARK   60  A    between atoms: _183  and  _185
REMARK   61  A    between atoms: _185  and  _186
REMARK   62  A    between atoms: _185  and  _188
REMARK   63  A    between atoms: _188  and  _189
REMARK   64  A    between atoms: _192  and  _194
REMARK   65  A    between atoms: _194  and  _195
REMARK   66  A    between atoms: _194  and  _197
REMARK   67  A    between atoms: _197  and  _198
REMARK   68  A    between atoms: _199  and  ZN_433
REMARK   69  A    between atoms: _203  and  _205
REMARK   70  A    between atoms: _205  and  _206
REMARK   71  A    between atoms: _205  and  _208
REMARK   72  A    between atoms: _208  and  _209
REMARK   73  A    between atoms: _212  and  _214
REMARK   74  A    between atoms: _214  and  _215
REMARK   75  A    between atoms: _214  and  _217
REMARK   76  A    between atoms: _220  and  _222
REMARK   77  A    between atoms: _222  and  _223
REMARK   78  A    between atoms: _222  and  _225
REMARK   79  A    between atoms: _225  and  _226
REMARK   80  A    between atoms: _231  and  _233
REMARK   81  A    between atoms: _233  and  _234
REMARK   82  A    between atoms: _233  and  _236
REMARK   83  A    between atoms: _239  and  _241
REMARK   84  A    between atoms: _241  and  _242
REMARK   85  A    between atoms: _244  and  _246
REMARK   86  A    between atoms: _246  and  _247
REMARK   87  A    between atoms: _250  and  _252
REMARK   88  A    between atoms: _252  and  _253
REMARK   89  A    between atoms: _252  and  _255
REMARK   90  A    between atoms: _258  and  _260
REMARK   91  A    between atoms: _260  and  _261
REMARK   92  A    between atoms: _260  and  _263
REMARK   93  A    between atoms: _263  and  _264
REMARK   94  A    between atoms: _264  and  _265
REMARK   95  A    between atoms: _270  and  _272
REMARK   96  A    between atoms: _272  and  _273
REMARK   97  A    between atoms: _272  and  _275
REMARK   98  A    between atoms: _275  and  _276
REMARK   99  A    between atoms: _279  and  _281
REMARK  100  A    between atoms: _281  and  _282
REMARK  101  A    between atoms: _285  and  _287
REMARK  102  A    between atoms: _287  and  _288
REMARK  103  A    between atoms: _287  and  _290
REMARK  104  A    between atoms: _293  and  _295
REMARK  105  A    between atoms: _295  and  _296
REMARK  106  A    between atoms: _295  and  _298
REMARK  107  A    between atoms: _298  and  _299
REMARK  108  A    between atoms: _302  and  _304
REMARK  109  A    between atoms: _304  and  _305
REMARK  110  A    between atoms: _307  and  _309
REMARK  111  A    between atoms: _309  and  _310
REMARK  112  A    between atoms: _309  and  _312
REMARK  113  A    between atoms: _312  and  _313
REMARK  114  A    between atoms: _315  and  _317
REMARK  115  A    between atoms: _317  and  _318
REMARK  116  A    between atoms: _317  and  _320
REMARK  117  A    between atoms: _320  and  _321
REMARK  118  A    between atoms: _324  and  _326
REMARK  119  A    between atoms: _326  and  _327
REMARK  120  A    between atoms: _326  and  _329
REMARK  121  A    between atoms: _329  and  _330
REMARK  122  A    between atoms: _333  and  _335
REMARK  123  A    between atoms: _335  and  _336
REMARK  124  A    between atoms: _335  and  _338
REMARK  125  A    between atoms: _338  and  _339
REMARK  126  A    between atoms: _343  and  _344
REMARK  127  A    between atoms: _350  and  _351
REMARK  128  A    between atoms: _356  and  _358
REMARK  129  A    between atoms: _358  and  _359
REMARK  130  A    between atoms: _358  and  _361
REMARK  131  A    between atoms: _361  and  _362
REMARK  132  A    between atoms: _365  and  _367
REMARK  133  A    between atoms: _367  and  _368
REMARK  134  A    between atoms: _367  and  _370
REMARK  135  A    between atoms: _370  and  _371
REMARK  136  A    between atoms: _374  and  _376
REMARK  137  A    between atoms: _376  and  _377
REMARK  138  A    between atoms: _376  and  _379
REMARK  139  A    between atoms: _381  and  _383
REMARK  140  A    between atoms: _383  and  _384
REMARK  141  A    between atoms: _383  and  _386
REMARK  142  A    between atoms: _389  and  _391
REMARK  143  A    between atoms: _391  and  _392
REMARK  144  A    between atoms: _391  and  _394
REMARK  145  A    between atoms: _394  and  _395
REMARK  146  A    between atoms: _405  and  _407
REMARK  147  A    between atoms: _407  and  _408
REMARK  148  A    between atoms: _407  and  _410
REMARK  149  A    between atoms: _410  and  _411
REMARK  150  A    between atoms: _416  and  _418
REMARK  151  A    between atoms: _418  and  _419
REMARK  152  A    between atoms: _418  and  _421
REMARK  153  A    between atoms: _421  and  _422
REMARK  154  A    between atoms: _422  and  _423
REMARK  155  A    between atoms: _423  and  _424
REMARK                            x       y       z     vdW  Elec       q    Type
REMARK                         _______ _______ _______ _____ _____    ______ ____
ROOT
ATOM      1  O   HOH     1      -3.081  -0.261  10.302  0.00  0.00    +0.000 OA
ENDROOT
TORSDOF 0
