REMARK  Name = ../refined-set-2016/4azc/4azc_pocket.pdb
REMARK  155 active torsions:
REMARK  status: ('A' for Active; 'I' for Inactive)
REMARK    1  A    between atoms: _1  and  _3
REMARK    2  A    between atoms: _3  and  _4
REMARK    3  A    between atoms: _3  and  _6
REMARK    4  A    between atoms: _6  and  _7
REMARK    5  A    between atoms: _10  and  _12
REMARK    6  A    between atoms: _12  and  _13
REMARK    7  A    between atoms: _12  and  _15
REMARK    8  A    between atoms: _15  and  _16
REMARK    9  A    between atoms: _16  and  _17
REMARK   10  A    between atoms: _17  and  _18
REMARK   11  A    between atoms: _27  and  _29
REMARK   12  A    between atoms: _29  and  _30
REMARK   13  A    between atoms: _29  and  _32
REMARK   14  A    between atoms: _32  and  _33
REMARK   15  A    between atoms: _36  and  _38
REMARK   16  A    between atoms: _38  and  _39
REMARK   17  A    between atoms: _38  and  _41
REMARK   18  A    between atoms: _41  and  _42
REMARK   19  A    between atoms: _47  and  _49
REMARK   20  A    between atoms: _49  and  _50
REMARK   21  A    between atoms: _49  and  _52
REMARK   22  A    between atoms: _52  and  _53
REMARK   23  A    between atoms: _56  and  _58
REMARK   24  A    between atoms: _58  and  _59
REMARK   25  A    between atoms: _58  and  _61
REMARK   26  A    between atoms: _61  and  _62
REMARK   27  A    between atoms: _67  and  _69
REMARK   28  A    between atoms: _69  and  _70
REMARK   29  A    between atoms: _69  and  _72
REMARK   30  A    between atoms: _72  and  _73
REMARK   31  A    between atoms: _78  and  _80
REMARK   32  A    between atoms: _80  and  _81
REMARK   33  A    between atoms: _80  and  _83
REMARK   34  A    between atoms: _83  and  _84
REMARK   35  A    between atoms: _89  and  _91
REMARK   36  A    between atoms: _91  and  _92
REMARK   37  A    between atoms: _94  and  _96
REMARK   38  A    between atoms: _96  and  _97
REMARK   39  A    between atoms: _96  and  _99
REMARK   40  A    between atoms: _99  and  _100
REMARK   41  A    between atoms: _103  and  _105
REMARK   42  A    between atoms: _105  and  _106
REMARK   43  A    between atoms: _105  and  _108
REMARK   44  A    between atoms: _108  and  _109
REMARK   45  A    between atoms: _112  and  _114
REMARK   46  A    between atoms: _114  and  _115
REMARK   47  A    between atoms: _114  and  _117
REMARK   48  A    between atoms: _117  and  _118
REMARK   49  A    between atoms: _118  and  _119
REMARK   50  A    between atoms: _122  and  _124
REMARK   51  A    between atoms: _124  and  _125
REMARK   52  A    between atoms: _124  and  _127
REMARK   53  A    between atoms: _127  and  _128
REMARK   54  A    between atoms: _133  and  _135
REMARK   55  A    between atoms: _135  and  _136
REMARK   56  A    between atoms: _139  and  _141
REMARK   57  A    between atoms: _141  and  _142
REMARK   58  A    between atoms: _141  and  _144
REMARK   59  A    between atoms: _144  and  _145
REMARK   60  A    between atoms: _151  and  _153
REMARK   61  A    between atoms: _153  and  _154
REMARK   62  A    between atoms: _153  and  _156
REMARK   63  A    between atoms: _156  and  _157
REMARK   64  A    between atoms: _162  and  _164
REMARK   65  A    between atoms: _164  and  _165
REMARK   66  A    between atoms: _164  and  _167
REMARK   67  A    between atoms: _167  and  _168
REMARK   68  A    between atoms: _171  and  _173
REMARK   69  A    between atoms: _173  and  _174
REMARK   70  A    between atoms: _173  and  _176
REMARK   71  A    between atoms: _176  and  _177
REMARK   72  A    between atoms: _179  and  _181
REMARK   73  A    between atoms: _181  and  _182
REMARK   74  A    between atoms: _181  and  _184
REMARK   75  A    between atoms: _184  and  _185
REMARK   76  A    between atoms: _190  and  _191
REMARK   77  A    between atoms: _193  and  _195
REMARK   78  A    between atoms: _195  and  _196
REMARK   79  A    between atoms: _195  and  _198
REMARK   80  A    between atoms: _198  and  _199
REMARK   81  A    between atoms: _209  and  _211
REMARK   82  A    between atoms: _211  and  _212
REMARK   83  A    between atoms: _211  and  _214
REMARK   84  A    between atoms: _214  and  _215
REMARK   85  A    between atoms: _217  and  _219
REMARK   86  A    between atoms: _219  and  _220
REMARK   87  A    between atoms: _219  and  _222
REMARK   88  A    between atoms: _222  and  _223
REMARK   89  A    between atoms: _233  and  _235
REMARK   90  A    between atoms: _235  and  _236
REMARK   91  A    between atoms: _235  and  _238
REMARK   92  A    between atoms: _238  and  _239
REMARK   93  A    between atoms: _244  and  _245
REMARK   94  A    between atoms: _247  and  _249
REMARK   95  A    between atoms: _249  and  _250
REMARK   96  A    between atoms: _249  and  _252
REMARK   97  A    between atoms: _252  and  _253
REMARK   98  A    between atoms: _256  and  _258
REMARK   99  A    between atoms: _258  and  _259
REMARK  100  A    between atoms: _261  and  _263
REMARK  101  A    between atoms: _263  and  _264
REMARK  102  A    between atoms: _263  and  _266
REMARK  103  A    between atoms: _266  and  _267
REMARK  104  A    between atoms: _272  and  _273
REMARK  105  A    between atoms: _275  and  _277
REMARK  106  A    between atoms: _277  and  _278
REMARK  107  A    between atoms: _277  and  _280
REMARK  108  A    between atoms: _280  and  _281
REMARK  109  A    between atoms: _286  and  _287
REMARK  110  A    between atoms: _289  and  _291
REMARK  111  A    between atoms: _291  and  _292
REMARK  112  A    between atoms: _291  and  _294
REMARK  113  A    between atoms: _294  and  _295
REMARK  114  A    between atoms: _298  and  _300
REMARK  115  A    between atoms: _300  and  _301
REMARK  116  A    between atoms: _300  and  _303
REMARK  117  A    between atoms: _303  and  _304
REMARK  118  A    between atoms: _307  and  _309
REMARK  119  A    between atoms: _309  and  _310
REMARK  120  A    between atoms: _309  and  _312
REMARK  121  A    between atoms: _312  and  _313
REMARK  122  A    between atoms: _313  and  _314
REMARK  123  A    between atoms: _319  and  _321
REMARK  124  A    between atoms: _321  and  _322
REMARK  125  A    between atoms: _324  and  _326
REMARK  126  A    between atoms: _326  and  _327
REMARK  127  A    between atoms: _329  and  _331
REMARK  128  A    between atoms: _331  and  _332
REMARK  129  A    between atoms: _331  and  _334
REMARK  130  A    between atoms: _334  and  _335
REMARK  131  A    between atoms: _335  and  _336
REMARK  132  A    between atoms: _338  and  _340
REMARK  133  A    between atoms: _340  and  _341
REMARK  134  A    between atoms: _340  and  _343
REMARK  135  A    between atoms: _343  and  _344
REMARK  136  A    between atoms: _346  and  _348
REMARK  137  A    between atoms: _348  and  _349
REMARK  138  A    between atoms: _348  and  _351
REMARK  139  A    between atoms: _351  and  _352
REMARK  140  A    between atoms: _355  and  _357
REMARK  141  A    between atoms: _357  and  _358
REMARK  142  A    between atoms: _357  and  _360
REMARK  143  A    between atoms: _360  and  _361
REMARK  144  A    between atoms: _371  and  _373
REMARK  145  A    between atoms: _373  and  _374
REMARK  146  A    between atoms: _377  and  _379
REMARK  147  A    between atoms: _379  and  _380
REMARK  148  A    between atoms: _379  and  _382
REMARK  149  A    between atoms: _382  and  _383
REMARK  150  A    between atoms: _386  and  _388
REMARK  151  A    between atoms: _388  and  _389
REMARK  152  A    between atoms: _388  and  _391
REMARK  153  A    between atoms: _391  and  _392
REMARK  154  A    between atoms: _392  and  _393
REMARK  155  A    between atoms: _393  and  _394
REMARK                            x       y       z     vdW  Elec       q    Type
REMARK                         _______ _______ _______ _____ _____    ______ ____
ROOT
ATOM      1  CA  ASP A   1     -25.368 -22.568 -48.219  0.00  0.00    +0.144 C 
ENDROOT
BRANCH   1   2
ATOM      2  N   ASP A   1     -25.040 -23.935 -47.834  0.00  0.00    -0.239 NA
ATOM      3  H   ASP A   1     -25.769 -24.521 -47.380  0.00  0.00    +0.142 HD
ENDBRANCH   1   2
BRANCH   1   4
ATOM      4  C   ASP A   1     -24.801 -21.600 -47.178  0.00  0.00    +0.225 C 
ATOM      5  O   ASP A   1     -25.510 -21.151 -46.264  0.00  0.00    -0.287 OA
ENDBRANCH   1   4
BRANCH   1   6
ATOM      6  CB  ASP A   1     -26.892 -22.423 -48.391  0.00  0.00    +0.139 C 
BRANCH   6   7
ATOM      7  CG  ASP A   1     -27.322 -21.026 -48.870  0.00  0.00    +0.367 C 
ATOM      8  OD2 ASP A   1     -28.546 -20.773 -48.936  0.00  0.00    -0.246 OA
ATOM      9  OD1 ASP A   1     -26.461 -20.168 -49.162  0.00  0.00    -0.246 OA
ENDBRANCH   6   7
ENDBRANCH   1   6
TORSDOF 4
REMARK  Name = ../refined-set-2016/4azc/4azc_pocket.pdb
REMARK  155 active torsions:
REMARK  status: ('A' for Active; 'I' for Inactive)
REMARK    1  A    between atoms: _1  and  _3
REMARK    2  A    between atoms: _3  and  _4
REMARK    3  A    between atoms: _3  and  _6
REMARK    4  A    between atoms: _6  and  _7
REMARK    5  A    between atoms: _10  and  _12
REMARK    6  A    between atoms: _12  and  _13
REMARK    7  A    between atoms: _12  and  _15
REMARK    8  A    between atoms: _15  and  _16
REMARK    9  A    between atoms: _16  and  _17
REMARK   10  A    between atoms: _17  and  _18
REMARK   11  A    between atoms: _27  and  _29
REMARK   12  A    between atoms: _29  and  _30
REMARK   13  A    between atoms: _29  and  _32
REMARK   14  A    between atoms: _32  and  _33
REMARK   15  A    between atoms: _36  and  _38
REMARK   16  A    between atoms: _38  and  _39
REMARK   17  A    between atoms: _38  and  _41
REMARK   18  A    between atoms: _41  and  _42
REMARK   19  A    between atoms: _47  and  _49
REMARK   20  A    between atoms: _49  and  _50
REMARK   21  A    between atoms: _49  and  _52
REMARK   22  A    between atoms: _52  and  _53
REMARK   23  A    between atoms: _56  and  _58
REMARK   24  A    between atoms: _58  and  _59
REMARK   25  A    between atoms: _58  and  _61
REMARK   26  A    between atoms: _61  and  _62
REMARK   27  A    between atoms: _67  and  _69
REMARK   28  A    between atoms: _69  and  _70
REMARK   29  A    between atoms: _69  and  _72
REMARK   30  A    between atoms: _72  and  _73
REMARK   31  A    between atoms: _78  and  _80
REMARK   32  A    between atoms: _80  and  _81
REMARK   33  A    between atoms: _80  and  _83
REMARK   34  A    between atoms: _83  and  _84
REMARK   35  A    between atoms: _89  and  _91
REMARK   36  A    between atoms: _91  and  _92
REMARK   37  A    between atoms: _94  and  _96
REMARK   38  A    between atoms: _96  and  _97
REMARK   39  A    between atoms: _96  and  _99
REMARK   40  A    between atoms: _99  and  _100
REMARK   41  A    between atoms: _103  and  _105
REMARK   42  A    between atoms: _105  and  _106
REMARK   43  A    between atoms: _105  and  _108
REMARK   44  A    between atoms: _108  and  _109
REMARK   45  A    between atoms: _112  and  _114
REMARK   46  A    between atoms: _114  and  _115
REMARK   47  A    between atoms: _114  and  _117
REMARK   48  A    between atoms: _117  and  _118
REMARK   49  A    between atoms: _118  and  _119
REMARK   50  A    between atoms: _122  and  _124
REMARK   51  A    between atoms: _124  and  _125
REMARK   52  A    between atoms: _124  and  _127
REMARK   53  A    between atoms: _127  and  _128
REMARK   54  A    between atoms: _133  and  _135
REMARK   55  A    between atoms: _135  and  _136
REMARK   56  A    between atoms: _139  and  _141
REMARK   57  A    between atoms: _141  and  _142
REMARK   58  A    between atoms: _141  and  _144
REMARK   59  A    between atoms: _144  and  _145
REMARK   60  A    between atoms: _151  and  _153
REMARK   61  A    between atoms: _153  and  _154
REMARK   62  A    between atoms: _153  and  _156
REMARK   63  A    between atoms: _156  and  _157
REMARK   64  A    between atoms: _162  and  _164
REMARK   65  A    between atoms: _164  and  _165
REMARK   66  A    between atoms: _164  and  _167
REMARK   67  A    between atoms: _167  and  _168
REMARK   68  A    between atoms: _171  and  _173
REMARK   69  A    between atoms: _173  and  _174
REMARK   70  A    between atoms: _173  and  _176
REMARK   71  A    between atoms: _176  and  _177
REMARK   72  A    between atoms: _179  and  _181
REMARK   73  A    between atoms: _181  and  _182
REMARK   74  A    between atoms: _181  and  _184
REMARK   75  A    between atoms: _184  and  _185
REMARK   76  A    between atoms: _190  and  _191
REMARK   77  A    between atoms: _193  and  _195
REMARK   78  A    between atoms: _195  and  _196
REMARK   79  A    between atoms: _195  and  _198
REMARK   80  A    between atoms: _198  and  _199
REMARK   81  A    between atoms: _209  and  _211
REMARK   82  A    between atoms: _211  and  _212
REMARK   83  A    between atoms: _211  and  _214
REMARK   84  A    between atoms: _214  and  _215
REMARK   85  A    between atoms: _217  and  _219
REMARK   86  A    between atoms: _219  and  _220
REMARK   87  A    between atoms: _219  and  _222
REMARK   88  A    between atoms: _222  and  _223
REMARK   89  A    between atoms: _233  and  _235
REMARK   90  A    between atoms: _235  and  _236
REMARK   91  A    between atoms: _235  and  _238
REMARK   92  A    between atoms: _238  and  _239
REMARK   93  A    between atoms: _244  and  _245
REMARK   94  A    between atoms: _247  and  _249
REMARK   95  A    between atoms: _249  and  _250
REMARK   96  A    between atoms: _249  and  _252
REMARK   97  A    between atoms: _252  and  _253
REMARK   98  A    between atoms: _256  and  _258
REMARK   99  A    between atoms: _258  and  _259
REMARK  100  A    between atoms: _261  and  _263
REMARK  101  A    between atoms: _263  and  _264
REMARK  102  A    between atoms: _263  and  _266
REMARK  103  A    between atoms: _266  and  _267
REMARK  104  A    between atoms: _272  and  _273
REMARK  105  A    between atoms: _275  and  _277
REMARK  106  A    between atoms: _277  and  _278
REMARK  107  A    between atoms: _277  and  _280
REMARK  108  A    between atoms: _280  and  _281
REMARK  109  A    between atoms: _286  and  _287
REMARK  110  A    between atoms: _289  and  _291
REMARK  111  A    between atoms: _291  and  _292
REMARK  112  A    between atoms: _291  and  _294
REMARK  113  A    between atoms: _294  and  _295
REMARK  114  A    between atoms: _298  and  _300
REMARK  115  A    between atoms: _300  and  _301
REMARK  116  A    between atoms: _300  and  _303
REMARK  117  A    between atoms: _303  and  _304
REMARK  118  A    between atoms: _307  and  _309
REMARK  119  A    between atoms: _309  and  _310
REMARK  120  A    between atoms: _309  and  _312
REMARK  121  A    between atoms: _312  and  _313
REMARK  122  A    between atoms: _313  and  _314
REMARK  123  A    between atoms: _319  and  _321
REMARK  124  A    between atoms: _321  and  _322
REMARK  125  A    between atoms: _324  and  _326
REMARK  126  A    between atoms: _326  and  _327
REMARK  127  A    between atoms: _329  and  _331
REMARK  128  A    between atoms: _331  and  _332
REMARK  129  A    between atoms: _331  and  _334
REMARK  130  A    between atoms: _334  and  _335
REMARK  131  A    between atoms: _335  and  _336
REMARK  132  A    between atoms: _338  and  _340
REMARK  133  A    between atoms: _340  and  _341
REMARK  134  A    between atoms: _340  and  _343
REMARK  135  A    between atoms: _343  and  _344
REMARK  136  A    between atoms: _346  and  _348
REMARK  137  A    between atoms: _348  and  _349
REMARK  138  A    between atoms: _348  and  _351
REMARK  139  A    between atoms: _351  and  _352
REMARK  140  A    between atoms: _355  and  _357
REMARK  141  A    between atoms: _357  and  _358
REMARK  142  A    between atoms: _357  and  _360
REMARK  143  A    between atoms: _360  and  _361
REMARK  144  A    between atoms: _371  and  _373
REMARK  145  A    between atoms: _373  and  _374
REMARK  146  A    between atoms: _377  and  _379
REMARK  147  A    between atoms: _379  and  _380
REMARK  148  A    between atoms: _379  and  _382
REMARK  149  A    between atoms: _382  and  _383
REMARK  150  A    between atoms: _386  and  _388
REMARK  151  A    between atoms: _388  and  _389
REMARK  152  A    between atoms: _388  and  _391
REMARK  153  A    between atoms: _391  and  _392
REMARK  154  A    between atoms: _392  and  _393
REMARK  155  A    between atoms: _393  and  _394
REMARK                            x       y       z     vdW  Elec       q    Type
REMARK                         _______ _______ _______ _____ _____    ______ ____
ROOT
ATOM      1  NE  ARG A   1     -31.081 -17.881 -50.274  0.00  0.00    -0.265 N 
ATOM      2  HE  ARG A   1     -31.524 -16.972 -50.518  0.00  0.00    +0.259 HD
ATOM      3  CZ  ARG A   1     -31.179 -18.873 -51.151  0.00  0.00    +0.342 C 
ATOM      4  NH2 ARG A   1     -30.591 -20.051 -50.920  0.00  0.00    -0.292 N 
ATOM      5 HH21 ARG A   1     -30.049 -20.199 -50.045  0.00  0.00    +0.255 HD
ATOM      6 HH22 ARG A   1     -30.676 -20.820 -51.615  0.00  0.00    +0.255 HD
ATOM      7  NH1 ARG A   1     -31.878 -18.690 -52.259  0.00  0.00    -0.292 N 
ATOM      8 HH11 ARG A   1     -32.343 -17.777 -52.435  0.00  0.00    +0.255 HD
ATOM      9 HH12 ARG A   1     -31.962 -19.459 -52.954  0.00  0.00    +0.255 HD
ENDROOT
BRANCH   1  10
ATOM     10  CD  ARG A   1     -30.396 -17.980 -48.994  0.00  0.00    +0.174 C 
BRANCH  10  11
ATOM     11  CG  ARG A   1     -29.003 -17.403 -48.957  0.00  0.00    +0.045 C 
BRANCH  11  12
ATOM     12  CB  ARG A   1     -28.547 -17.367 -47.504  0.00  0.00    +0.029 C 
BRANCH  12  13
ATOM     13  CA  ARG A   1     -27.239 -16.628 -47.266  0.00  0.00    +0.133 C 
BRANCH  13  14
ATOM     14  N   ARG A   1     -26.118 -17.320 -47.906  0.00  0.00    -0.239 NA
ATOM     15  H   ARG A   1     -26.227 -18.301 -48.235  0.00  0.00    +0.142 HD
ENDBRANCH  13  14
BRANCH  13  16
ATOM     16  C   ARG A   1     -27.003 -16.451 -45.769  0.00  0.00    +0.224 C 
ATOM     17  O   ARG A   1     -27.382 -15.424 -45.192  0.00  0.00    -0.287 OA
ENDBRANCH  13  16
ENDBRANCH  12  13
ENDBRANCH  11  12
ENDBRANCH  10  11
ENDBRANCH   1  10
TORSDOF 6
REMARK  Name = ../refined-set-2016/4azc/4azc_pocket.pdb
REMARK  155 active torsions:
REMARK  status: ('A' for Active; 'I' for Inactive)
REMARK    1  A    between atoms: _1  and  _3
REMARK    2  A    between atoms: _3  and  _4
REMARK    3  A    between atoms: _3  and  _6
REMARK    4  A    between atoms: _6  and  _7
REMARK    5  A    between atoms: _10  and  _12
REMARK    6  A    between atoms: _12  and  _13
REMARK    7  A    between atoms: _12  and  _15
REMARK    8  A    between atoms: _15  and  _16
REMARK    9  A    between atoms: _16  and  _17
REMARK   10  A    between atoms: _17  and  _18
REMARK   11  A    between atoms: _27  and  _29
REMARK   12  A    between atoms: _29  and  _30
REMARK   13  A    between atoms: _29  and  _32
REMARK   14  A    between atoms: _32  and  _33
REMARK   15  A    between atoms: _36  and  _38
REMARK   16  A    between atoms: _38  and  _39
REMARK   17  A    between atoms: _38  and  _41
REMARK   18  A    between atoms: _41  and  _42
REMARK   19  A    between atoms: _47  and  _49
REMARK   20  A    between atoms: _49  and  _50
REMARK   21  A    between atoms: _49  and  _52
REMARK   22  A    between atoms: _52  and  _53
REMARK   23  A    between atoms: _56  and  _58
REMARK   24  A    between atoms: _58  and  _59
REMARK   25  A    between atoms: _58  and  _61
REMARK   26  A    between atoms: _61  and  _62
REMARK   27  A    between atoms: _67  and  _69
REMARK   28  A    between atoms: _69  and  _70
REMARK   29  A    between atoms: _69  and  _72
REMARK   30  A    between atoms: _72  and  _73
REMARK   31  A    between atoms: _78  and  _80
REMARK   32  A    between atoms: _80  and  _81
REMARK   33  A    between atoms: _80  and  _83
REMARK   34  A    between atoms: _83  and  _84
REMARK   35  A    between atoms: _89  and  _91
REMARK   36  A    between atoms: _91  and  _92
REMARK   37  A    between atoms: _94  and  _96
REMARK   38  A    between atoms: _96  and  _97
REMARK   39  A    between atoms: _96  and  _99
REMARK   40  A    between atoms: _99  and  _100
REMARK   41  A    between atoms: _103  and  _105
REMARK   42  A    between atoms: _105  and  _106
REMARK   43  A    between atoms: _105  and  _108
REMARK   44  A    between atoms: _108  and  _109
REMARK   45  A    between atoms: _112  and  _114
REMARK   46  A    between atoms: _114  and  _115
REMARK   47  A    between atoms: _114  and  _117
REMARK   48  A    between atoms: _117  and  _118
REMARK   49  A    between atoms: _118  and  _119
REMARK   50  A    between atoms: _122  and  _124
REMARK   51  A    between atoms: _124  and  _125
REMARK   52  A    between atoms: _124  and  _127
REMARK   53  A    between atoms: _127  and  _128
REMARK   54  A    between atoms: _133  and  _135
REMARK   55  A    between atoms: _135  and  _136
REMARK   56  A    between atoms: _139  and  _141
REMARK   57  A    between atoms: _141  and  _142
REMARK   58  A    between atoms: _141  and  _144
REMARK   59  A    between atoms: _144  and  _145
REMARK   60  A    between atoms: _151  and  _153
REMARK   61  A    between atoms: _153  and  _154
REMARK   62  A    between atoms: _153  and  _156
REMARK   63  A    between atoms: _156  and  _157
REMARK   64  A    between atoms: _162  and  _164
REMARK   65  A    between atoms: _164  and  _165
REMARK   66  A    between atoms: _164  and  _167
REMARK   67  A    between atoms: _167  and  _168
REMARK   68  A    between atoms: _171  and  _173
REMARK   69  A    between atoms: _173  and  _174
REMARK   70  A    between atoms: _173  and  _176
REMARK   71  A    between atoms: _176  and  _177
REMARK   72  A    between atoms: _179  and  _181
REMARK   73  A    between atoms: _181  and  _182
REMARK   74  A    between atoms: _181  and  _184
REMARK   75  A    between atoms: _184  and  _185
REMARK   76  A    between atoms: _190  and  _191
REMARK   77  A    between atoms: _193  and  _195
REMARK   78  A    between atoms: _195  and  _196
REMARK   79  A    between atoms: _195  and  _198
REMARK   80  A    between atoms: _198  and  _199
REMARK   81  A    between atoms: _209  and  _211
REMARK   82  A    between atoms: _211  and  _212
REMARK   83  A    between atoms: _211  and  _214
REMARK   84  A    between atoms: _214  and  _215
REMARK   85  A    between atoms: _217  and  _219
REMARK   86  A    between atoms: _219  and  _220
REMARK   87  A    between atoms: _219  and  _222
REMARK   88  A    between atoms: _222  and  _223
REMARK   89  A    between atoms: _233  and  _235
REMARK   90  A    between atoms: _235  and  _236
REMARK   91  A    between atoms: _235  and  _238
REMARK   92  A    between atoms: _238  and  _239
REMARK   93  A    between atoms: _244  and  _245
REMARK   94  A    between atoms: _247  and  _249
REMARK   95  A    between atoms: _249  and  _250
REMARK   96  A    between atoms: _249  and  _252
REMARK   97  A    between atoms: _252  and  _253
REMARK   98  A    between atoms: _256  and  _258
REMARK   99  A    between atoms: _258  and  _259
REMARK  100  A    between atoms: _261  and  _263
REMARK  101  A    between atoms: _263  and  _264
REMARK  102  A    between atoms: _263  and  _266
REMARK  103  A    between atoms: _266  and  _267
REMARK  104  A    between atoms: _272  and  _273
REMARK  105  A    between atoms: _275  and  _277
REMARK  106  A    between atoms: _277  and  _278
REMARK  107  A    between atoms: _277  and  _280
REMARK  108  A    between atoms: _280  and  _281
REMARK  109  A    between atoms: _286  and  _287
REMARK  110  A    between atoms: _289  and  _291
REMARK  111  A    between atoms: _291  and  _292
REMARK  112  A    between atoms: _291  and  _294
REMARK  113  A    between atoms: _294  and  _295
REMARK  114  A    between atoms: _298  and  _300
REMARK  115  A    between atoms: _300  and  _301
REMARK  116  A    between atoms: _300  and  _303
REMARK  117  A    between atoms: _303  and  _304
REMARK  118  A    between atoms: _307  and  _309
REMARK  119  A    between atoms: _309  and  _310
REMARK  120  A    between atoms: _309  and  _312
REMARK  121  A    between atoms: _312  and  _313
REMARK  122  A    between atoms: _313  and  _314
REMARK  123  A    between atoms: _319  and  _321
REMARK  124  A    between atoms: _321  and  _322
REMARK  125  A    between atoms: _324  and  _326
REMARK  126  A    between atoms: _326  and  _327
REMARK  127  A    between atoms: _329  and  _331
REMARK  128  A    between atoms: _331  and  _332
REMARK  129  A    between atoms: _331  and  _334
REMARK  130  A    between atoms: _334  and  _335
REMARK  131  A    between atoms: _335  and  _336
REMARK  132  A    between atoms: _338  and  _340
REMARK  133  A    between atoms: _340  and  _341
REMARK  134  A    between atoms: _340  and  _343
REMARK  135  A    between atoms: _343  and  _344
REMARK  136  A    between atoms: _346  and  _348
REMARK  137  A    between atoms: _348  and  _349
REMARK  138  A    between atoms: _348  and  _351
REMARK  139  A    between atoms: _351  and  _352
REMARK  140  A    between atoms: _355  and  _357
REMARK  141  A    between atoms: _357  and  _358
REMARK  142  A    between atoms: _357  and  _360
REMARK  143  A    between atoms: _360  and  _361
REMARK  144  A    between atoms: _371  and  _373
REMARK  145  A    between atoms: _373  and  _374
REMARK  146  A    between atoms: _377  and  _379
REMARK  147  A    between atoms: _379  and  _380
REMARK  148  A    between atoms: _379  and  _382
REMARK  149  A    between atoms: _382  and  _383
REMARK  150  A    between atoms: _386  and  _388
REMARK  151  A    between atoms: _388  and  _389
REMARK  152  A    between atoms: _388  and  _391
REMARK  153  A    between atoms: _391  and  _392
REMARK  154  A    between atoms: _392  and  _393
REMARK  155  A    between atoms: _393  and  _394
REMARK                            x       y       z     vdW  Elec       q    Type
REMARK                         _______ _______ _______ _____ _____    ______ ____
ROOT
ATOM      1  CA  LEU A   1     -21.513 -21.509 -51.401  0.00  0.00    +0.133 C 
ENDROOT
BRANCH   1   2
ATOM      2  N   LEU A   1     -21.096 -22.758 -50.799  0.00  0.00    -0.239 NA
ATOM      3  H   LEU A   1     -21.785 -23.360 -50.305  0.00  0.00    +0.142 HD
ENDBRANCH   1   2
BRANCH   1   4
ATOM      4  C   LEU A   1     -21.040 -20.361 -50.520  0.00  0.00    +0.224 C 
ATOM      5  O   LEU A   1     -21.308 -20.343 -49.319  0.00  0.00    -0.287 OA
ENDBRANCH   1   4
BRANCH   1   6
ATOM      6  CB  LEU A   1     -23.023 -21.452 -51.633  0.00  0.00    +0.025 C 
BRANCH   6   7
ATOM      7  CG  LEU A   1     -23.567 -22.484 -52.627  0.00  0.00    +0.002 C 
ATOM      8  CD2 LEU A   1     -24.419 -23.539 -51.894  0.00  0.00    +0.000 C 
ATOM      9  CD1 LEU A   1     -24.391 -21.797 -53.685  0.00  0.00    +0.000 C 
ENDBRANCH   6   7
ENDBRANCH   1   6
TORSDOF 4
REMARK  Name = ../refined-set-2016/4azc/4azc_pocket.pdb
REMARK  155 active torsions:
REMARK  status: ('A' for Active; 'I' for Inactive)
REMARK    1  A    between atoms: _1  and  _3
REMARK    2  A    between atoms: _3  and  _4
REMARK    3  A    between atoms: _3  and  _6
REMARK    4  A    between atoms: _6  and  _7
REMARK    5  A    between atoms: _10  and  _12
REMARK    6  A    between atoms: _12  and  _13
REMARK    7  A    between atoms: _12  and  _15
REMARK    8  A    between atoms: _15  and  _16
REMARK    9  A    between atoms: _16  and  _17
REMARK   10  A    between atoms: _17  and  _18
REMARK   11  A    between atoms: _27  and  _29
REMARK   12  A    between atoms: _29  and  _30
REMARK   13  A    between atoms: _29  and  _32
REMARK   14  A    between atoms: _32  and  _33
REMARK   15  A    between atoms: _36  and  _38
REMARK   16  A    between atoms: _38  and  _39
REMARK   17  A    between atoms: _38  and  _41
REMARK   18  A    between atoms: _41  and  _42
REMARK   19  A    between atoms: _47  and  _49
REMARK   20  A    between atoms: _49  and  _50
REMARK   21  A    between atoms: _49  and  _52
REMARK   22  A    between atoms: _52  and  _53
REMARK   23  A    between atoms: _56  and  _58
REMARK   24  A    between atoms: _58  and  _59
REMARK   25  A    between atoms: _58  and  _61
REMARK   26  A    between atoms: _61  and  _62
REMARK   27  A    between atoms: _67  and  _69
REMARK   28  A    between atoms: _69  and  _70
REMARK   29  A    between atoms: _69  and  _72
REMARK   30  A    between atoms: _72  and  _73
REMARK   31  A    between atoms: _78  and  _80
REMARK   32  A    between atoms: _80  and  _81
REMARK   33  A    between atoms: _80  and  _83
REMARK   34  A    between atoms: _83  and  _84
REMARK   35  A    between atoms: _89  and  _91
REMARK   36  A    between atoms: _91  and  _92
REMARK   37  A    between atoms: _94  and  _96
REMARK   38  A    between atoms: _96  and  _97
REMARK   39  A    between atoms: _96  and  _99
REMARK   40  A    between atoms: _99  and  _100
REMARK   41  A    between atoms: _103  and  _105
REMARK   42  A    between atoms: _105  and  _106
REMARK   43  A    between atoms: _105  and  _108
REMARK   44  A    between atoms: _108  and  _109
REMARK   45  A    between atoms: _112  and  _114
REMARK   46  A    between atoms: _114  and  _115
REMARK   47  A    between atoms: _114  and  _117
REMARK   48  A    between atoms: _117  and  _118
REMARK   49  A    between atoms: _118  and  _119
REMARK   50  A    between atoms: _122  and  _124
REMARK   51  A    between atoms: _124  and  _125
REMARK   52  A    between atoms: _124  and  _127
REMARK   53  A    between atoms: _127  and  _128
REMARK   54  A    between atoms: _133  and  _135
REMARK   55  A    between atoms: _135  and  _136
REMARK   56  A    between atoms: _139  and  _141
REMARK   57  A    between atoms: _141  and  _142
REMARK   58  A    between atoms: _141  and  _144
REMARK   59  A    between atoms: _144  and  _145
REMARK   60  A    between atoms: _151  and  _153
REMARK   61  A    between atoms: _153  and  _154
REMARK   62  A    between atoms: _153  and  _156
REMARK   63  A    between atoms: _156  and  _157
REMARK   64  A    between atoms: _162  and  _164
REMARK   65  A    between atoms: _164  and  _165
REMARK   66  A    between atoms: _164  and  _167
REMARK   67  A    between atoms: _167  and  _168
REMARK   68  A    between atoms: _171  and  _173
REMARK   69  A    between atoms: _173  and  _174
REMARK   70  A    between atoms: _173  and  _176
REMARK   71  A    between atoms: _176  and  _177
REMARK   72  A    between atoms: _179  and  _181
REMARK   73  A    between atoms: _181  and  _182
REMARK   74  A    between atoms: _181  and  _184
REMARK   75  A    between atoms: _184  and  _185
REMARK   76  A    between atoms: _190  and  _191
REMARK   77  A    between atoms: _193  and  _195
REMARK   78  A    between atoms: _195  and  _196
REMARK   79  A    between atoms: _195  and  _198
REMARK   80  A    between atoms: _198  and  _199
REMARK   81  A    between atoms: _209  and  _211
REMARK   82  A    between atoms: _211  and  _212
REMARK   83  A    between atoms: _211  and  _214
REMARK   84  A    between atoms: _214  and  _215
REMARK   85  A    between atoms: _217  and  _219
REMARK   86  A    between atoms: _219  and  _220
REMARK   87  A    between atoms: _219  and  _222
REMARK   88  A    between atoms: _222  and  _223
REMARK   89  A    between atoms: _233  and  _235
REMARK   90  A    between atoms: _235  and  _236
REMARK   91  A    between atoms: _235  and  _238
REMARK   92  A    between atoms: _238  and  _239
REMARK   93  A    between atoms: _244  and  _245
REMARK   94  A    between atoms: _247  and  _249
REMARK   95  A    between atoms: _249  and  _250
REMARK   96  A    between atoms: _249  and  _252
REMARK   97  A    between atoms: _252  and  _253
REMARK   98  A    between atoms: _256  and  _258
REMARK   99  A    between atoms: _258  and  _259
REMARK  100  A    between atoms: _261  and  _263
REMARK  101  A    between atoms: _263  and  _264
REMARK  102  A    between atoms: _263  and  _266
REMARK  103  A    between atoms: _266  and  _267
REMARK  104  A    between atoms: _272  and  _273
REMARK  105  A    between atoms: _275  and  _277
REMARK  106  A    between atoms: _277  and  _278
REMARK  107  A    between atoms: _277  and  _280
REMARK  108  A    between atoms: _280  and  _281
REMARK  109  A    between atoms: _286  and  _287
REMARK  110  A    between atoms: _289  and  _291
REMARK  111  A    between atoms: _291  and  _292
REMARK  112  A    between atoms: _291  and  _294
REMARK  113  A    between atoms: _294  and  _295
REMARK  114  A    between atoms: _298  and  _300
REMARK  115  A    between atoms: _300  and  _301
REMARK  116  A    between atoms: _300  and  _303
REMARK  117  A    between atoms: _303  and  _304
REMARK  118  A    between atoms: _307  and  _309
REMARK  119  A    between atoms: _309  and  _310
REMARK  120  A    between atoms: _309  and  _312
REMARK  121  A    between atoms: _312  and  _313
REMARK  122  A    between atoms: _313  and  _314
REMARK  123  A    between atoms: _319  and  _321
REMARK  124  A    between atoms: _321  and  _322
REMARK  125  A    between atoms: _324  and  _326
REMARK  126  A    between atoms: _326  and  _327
REMARK  127  A    between atoms: _329  and  _331
REMARK  128  A    between atoms: _331  and  _332
REMARK  129  A    between atoms: _331  and  _334
REMARK  130  A    between atoms: _334  and  _335
REMARK  131  A    between atoms: _335  and  _336
REMARK  132  A    between atoms: _338  and  _340
REMARK  133  A    between atoms: _340  and  _341
REMARK  134  A    between atoms: _340  and  _343
REMARK  135  A    between atoms: _343  and  _344
REMARK  136  A    between atoms: _346  and  _348
REMARK  137  A    between atoms: _348  and  _349
REMARK  138  A    between atoms: _348  and  _351
REMARK  139  A    between atoms: _351  and  _352
REMARK  140  A    between atoms: _355  and  _357
REMARK  141  A    between atoms: _357  and  _358
REMARK  142  A    between atoms: _357  and  _360
REMARK  143  A    between atoms: _360  and  _361
REMARK  144  A    between atoms: _371  and  _373
REMARK  145  A    between atoms: _373  and  _374
REMARK  146  A    between atoms: _377  and  _379
REMARK  147  A    between atoms: _379  and  _380
REMARK  148  A    between atoms: _379  and  _382
REMARK  149  A    between atoms: _382  and  _383
REMARK  150  A    between atoms: _386  and  _388
REMARK  151  A    between atoms: _388  and  _389
REMARK  152  A    between atoms: _388  and  _391
REMARK  153  A    between atoms: _391  and  _392
REMARK  154  A    between atoms: _392  and  _393
REMARK  155  A    between atoms: _393  and  _394
REMARK                            x       y       z     vdW  Elec       q    Type
REMARK                         _______ _______ _______ _____ _____    ______ ____
ROOT
ATOM      1  C   ASN A   1     -26.281 -15.891 -51.907  0.00  0.00    +0.239 C 
ATOM      2  O   ASN A   1     -26.487 -16.103 -50.700  0.00  0.00    -0.274 OA
ATOM      3  N   ASP A   2     -26.792 -14.870 -52.604  0.00  0.00    -0.298 N 
ATOM      4  H   ASP A   2     -26.684 -14.891 -53.638  0.00  0.00    +0.150 HD
ENDROOT
BRANCH   1   5
ATOM      5  CA  ASN A   1     -25.357 -16.799 -52.684  0.00  0.00    +0.154 C 
BRANCH   5   6
ATOM      6  N   ASN A   1     -24.008 -16.291 -52.435  0.00  0.00    -0.238 NA
ATOM      7  H   ASN A   1     -23.860 -15.657 -51.624  0.00  0.00    +0.142 HD
ENDBRANCH   5   6
BRANCH   5   8
ATOM      8  CB  ASN A   1     -25.508 -18.241 -52.197  0.00  0.00    +0.111 C 
BRANCH   8   9
ATOM      9  CG  ASN A   1     -26.736 -18.922 -52.759  0.00  0.00    +0.221 C 
ATOM     10  OD1 ASN A   1     -27.474 -19.580 -52.032  0.00  0.00    -0.275 OA
ATOM     11  ND2 ASN A   1     -26.960 -18.779 -54.058  0.00  0.00    -0.329 N 
ATOM     12 HD21 ASN A   1     -27.786 -19.233 -54.496  0.00  0.00    +0.145 HD
ATOM     13 HD22 ASN A   1     -26.309 -18.212 -54.639  0.00  0.00    +0.145 HD
ENDBRANCH   8   9
ENDBRANCH   5   8
ENDBRANCH   1   5
BRANCH   3  14
ATOM     14  CA  ASP A   2     -27.498 -13.715 -52.015  0.00  0.00    +0.148 C 
BRANCH  14  15
ATOM     15  C   ASP A   2     -26.520 -12.868 -51.207  0.00  0.00    +0.227 C 
ATOM     16  O   ASP A   2     -26.102 -11.803 -51.659  0.00  0.00    -0.286 OA
ENDBRANCH  14  15
BRANCH  14  17
ATOM     17  CB  ASP A   2     -28.706 -14.134 -51.168  0.00  0.00    +0.142 C 
BRANCH  17  18
ATOM     18  CG  ASP A   2     -29.789 -14.820 -51.985  0.00  0.00    +0.367 C 
ATOM     19  OD2 ASP A   2     -30.905 -15.026 -51.453  0.00  0.00    -0.246 OA
ATOM     20  OD1 ASP A   2     -29.541 -15.154 -53.153  0.00  0.00    -0.246 OA
ENDBRANCH  17  18
ENDBRANCH  14  17
ENDBRANCH   3  14
TORSDOF 8
REMARK  Name = ../refined-set-2016/4azc/4azc_pocket.pdb
REMARK  155 active torsions:
REMARK  status: ('A' for Active; 'I' for Inactive)
REMARK    1  A    between atoms: _1  and  _3
REMARK    2  A    between atoms: _3  and  _4
REMARK    3  A    between atoms: _3  and  _6
REMARK    4  A    between atoms: _6  and  _7
REMARK    5  A    between atoms: _10  and  _12
REMARK    6  A    between atoms: _12  and  _13
REMARK    7  A    between atoms: _12  and  _15
REMARK    8  A    between atoms: _15  and  _16
REMARK    9  A    between atoms: _16  and  _17
REMARK   10  A    between atoms: _17  and  _18
REMARK   11  A    between atoms: _27  and  _29
REMARK   12  A    between atoms: _29  and  _30
REMARK   13  A    between atoms: _29  and  _32
REMARK   14  A    between atoms: _32  and  _33
REMARK   15  A    between atoms: _36  and  _38
REMARK   16  A    between atoms: _38  and  _39
REMARK   17  A    between atoms: _38  and  _41
REMARK   18  A    between atoms: _41  and  _42
REMARK   19  A    between atoms: _47  and  _49
REMARK   20  A    between atoms: _49  and  _50
REMARK   21  A    between atoms: _49  and  _52
REMARK   22  A    between atoms: _52  and  _53
REMARK   23  A    between atoms: _56  and  _58
REMARK   24  A    between atoms: _58  and  _59
REMARK   25  A    between atoms: _58  and  _61
REMARK   26  A    between atoms: _61  and  _62
REMARK   27  A    between atoms: _67  and  _69
REMARK   28  A    between atoms: _69  and  _70
REMARK   29  A    between atoms: _69  and  _72
REMARK   30  A    between atoms: _72  and  _73
REMARK   31  A    between atoms: _78  and  _80
REMARK   32  A    between atoms: _80  and  _81
REMARK   33  A    between atoms: _80  and  _83
REMARK   34  A    between atoms: _83  and  _84
REMARK   35  A    between atoms: _89  and  _91
REMARK   36  A    between atoms: _91  and  _92
REMARK   37  A    between atoms: _94  and  _96
REMARK   38  A    between atoms: _96  and  _97
REMARK   39  A    between atoms: _96  and  _99
REMARK   40  A    between atoms: _99  and  _100
REMARK   41  A    between atoms: _103  and  _105
REMARK   42  A    between atoms: _105  and  _106
REMARK   43  A    between atoms: _105  and  _108
REMARK   44  A    between atoms: _108  and  _109
REMARK   45  A    between atoms: _112  and  _114
REMARK   46  A    between atoms: _114  and  _115
REMARK   47  A    between atoms: _114  and  _117
REMARK   48  A    between atoms: _117  and  _118
REMARK   49  A    between atoms: _118  and  _119
REMARK   50  A    between atoms: _122  and  _124
REMARK   51  A    between atoms: _124  and  _125
REMARK   52  A    between atoms: _124  and  _127
REMARK   53  A    between atoms: _127  and  _128
REMARK   54  A    between atoms: _133  and  _135
REMARK   55  A    between atoms: _135  and  _136
REMARK   56  A    between atoms: _139  and  _141
REMARK   57  A    between atoms: _141  and  _142
REMARK   58  A    between atoms: _141  and  _144
REMARK   59  A    between atoms: _144  and  _145
REMARK   60  A    between atoms: _151  and  _153
REMARK   61  A    between atoms: _153  and  _154
REMARK   62  A    between atoms: _153  and  _156
REMARK   63  A    between atoms: _156  and  _157
REMARK   64  A    between atoms: _162  and  _164
REMARK   65  A    between atoms: _164  and  _165
REMARK   66  A    between atoms: _164  and  _167
REMARK   67  A    between atoms: _167  and  _168
REMARK   68  A    between atoms: _171  and  _173
REMARK   69  A    between atoms: _173  and  _174
REMARK   70  A    between atoms: _173  and  _176
REMARK   71  A    between atoms: _176  and  _177
REMARK   72  A    between atoms: _179  and  _181
REMARK   73  A    between atoms: _181  and  _182
REMARK   74  A    between atoms: _181  and  _184
REMARK   75  A    between atoms: _184  and  _185
REMARK   76  A    between atoms: _190  and  _191
REMARK   77  A    between atoms: _193  and  _195
REMARK   78  A    between atoms: _195  and  _196
REMARK   79  A    between atoms: _195  and  _198
REMARK   80  A    between atoms: _198  and  _199
REMARK   81  A    between atoms: _209  and  _211
REMARK   82  A    between atoms: _211  and  _212
REMARK   83  A    between atoms: _211  and  _214
REMARK   84  A    between atoms: _214  and  _215
REMARK   85  A    between atoms: _217  and  _219
REMARK   86  A    between atoms: _219  and  _220
REMARK   87  A    between atoms: _219  and  _222
REMARK   88  A    between atoms: _222  and  _223
REMARK   89  A    between atoms: _233  and  _235
REMARK   90  A    between atoms: _235  and  _236
REMARK   91  A    between atoms: _235  and  _238
REMARK   92  A    between atoms: _238  and  _239
REMARK   93  A    between atoms: _244  and  _245
REMARK   94  A    between atoms: _247  and  _249
REMARK   95  A    between atoms: _249  and  _250
REMARK   96  A    between atoms: _249  and  _252
REMARK   97  A    between atoms: _252  and  _253
REMARK   98  A    between atoms: _256  and  _258
REMARK   99  A    between atoms: _258  and  _259
REMARK  100  A    between atoms: _261  and  _263
REMARK  101  A    between atoms: _263  and  _264
REMARK  102  A    between atoms: _263  and  _266
REMARK  103  A    between atoms: _266  and  _267
REMARK  104  A    between atoms: _272  and  _273
REMARK  105  A    between atoms: _275  and  _277
REMARK  106  A    between atoms: _277  and  _278
REMARK  107  A    between atoms: _277  and  _280
REMARK  108  A    between atoms: _280  and  _281
REMARK  109  A    between atoms: _286  and  _287
REMARK  110  A    between atoms: _289  and  _291
REMARK  111  A    between atoms: _291  and  _292
REMARK  112  A    between atoms: _291  and  _294
REMARK  113  A    between atoms: _294  and  _295
REMARK  114  A    between atoms: _298  and  _300
REMARK  115  A    between atoms: _300  and  _301
REMARK  116  A    between atoms: _300  and  _303
REMARK  117  A    between atoms: _303  and  _304
REMARK  118  A    between atoms: _307  and  _309
REMARK  119  A    between atoms: _309  and  _310
REMARK  120  A    between atoms: _309  and  _312
REMARK  121  A    between atoms: _312  and  _313
REMARK  122  A    between atoms: _313  and  _314
REMARK  123  A    between atoms: _319  and  _321
REMARK  124  A    between atoms: _321  and  _322
REMARK  125  A    between atoms: _324  and  _326
REMARK  126  A    between atoms: _326  and  _327
REMARK  127  A    between atoms: _329  and  _331
REMARK  128  A    between atoms: _331  and  _332
REMARK  129  A    between atoms: _331  and  _334
REMARK  130  A    between atoms: _334  and  _335
REMARK  131  A    between atoms: _335  and  _336
REMARK  132  A    between atoms: _338  and  _340
REMARK  133  A    between atoms: _340  and  _341
REMARK  134  A    between atoms: _340  and  _343
REMARK  135  A    between atoms: _343  and  _344
REMARK  136  A    between atoms: _346  and  _348
REMARK  137  A    between atoms: _348  and  _349
REMARK  138  A    between atoms: _348  and  _351
REMARK  139  A    between atoms: _351  and  _352
REMARK  140  A    between atoms: _355  and  _357
REMARK  141  A    between atoms: _357  and  _358
REMARK  142  A    between atoms: _357  and  _360
REMARK  143  A    between atoms: _360  and  _361
REMARK  144  A    between atoms: _371  and  _373
REMARK  145  A    between atoms: _373  and  _374
REMARK  146  A    between atoms: _377  and  _379
REMARK  147  A    between atoms: _379  and  _380
REMARK  148  A    between atoms: _379  and  _382
REMARK  149  A    between atoms: _382  and  _383
REMARK  150  A    between atoms: _386  and  _388
REMARK  151  A    between atoms: _388  and  _389
REMARK  152  A    between atoms: _388  and  _391
REMARK  153  A    between atoms: _391  and  _392
REMARK  154  A    between atoms: _392  and  _393
REMARK  155  A    between atoms: _393  and  _394
REMARK                            x       y       z     vdW  Elec       q    Type
REMARK                         _______ _______ _______ _____ _____    ______ ____
ROOT
ATOM      1  CB  ASN A   1     -24.535 -17.293 -56.883  0.00  0.00    +0.110 C 
ENDROOT
BRANCH   1   2
ATOM      2  CG  ASN A   1     -25.504 -18.134 -57.728  0.00  0.00    +0.221 C 
ATOM      3  ND2 ASN A   1     -26.340 -18.920 -57.059  0.00  0.00    -0.329 N 
ATOM      4 HD21 ASN A   1     -26.313 -18.942 -56.020  0.00  0.00    +0.145 HD
ATOM      5 HD22 ASN A   1     -27.021 -19.513 -57.575  0.00  0.00    +0.145 HD
ATOM      6  OD1 ASN A   1     -25.497 -18.073 -58.957  0.00  0.00    -0.275 OA
ENDBRANCH   1   2
BRANCH   1   7
ATOM      7  CA  ASN A   1     -23.208 -16.993 -57.608  0.00  0.00    +0.142 C 
BRANCH   7   8
ATOM      8  N   ASN A   1     -22.080 -17.050 -56.660  0.00  0.00    -0.239 NA
ATOM      9  H   ASN A   1     -22.257 -16.900 -55.646  0.00  0.00    +0.142 HD
ENDBRANCH   7   8
BRANCH   7  10
ATOM     10  C   ASN A   1     -23.310 -15.654 -58.324  0.00  0.00    +0.225 C 
ATOM     11  O   ASN A   1     -23.110 -14.611 -57.704  0.00  0.00    -0.287 OA
ENDBRANCH   7  10
ENDBRANCH   1   7
TORSDOF 4
REMARK  Name = ../refined-set-2016/4azc/4azc_pocket.pdb
REMARK  155 active torsions:
REMARK  status: ('A' for Active; 'I' for Inactive)
REMARK    1  A    between atoms: _1  and  _3
REMARK    2  A    between atoms: _3  and  _4
REMARK    3  A    between atoms: _3  and  _6
REMARK    4  A    between atoms: _6  and  _7
REMARK    5  A    between atoms: _10  and  _12
REMARK    6  A    between atoms: _12  and  _13
REMARK    7  A    between atoms: _12  and  _15
REMARK    8  A    between atoms: _15  and  _16
REMARK    9  A    between atoms: _16  and  _17
REMARK   10  A    between atoms: _17  and  _18
REMARK   11  A    between atoms: _27  and  _29
REMARK   12  A    between atoms: _29  and  _30
REMARK   13  A    between atoms: _29  and  _32
REMARK   14  A    between atoms: _32  and  _33
REMARK   15  A    between atoms: _36  and  _38
REMARK   16  A    between atoms: _38  and  _39
REMARK   17  A    between atoms: _38  and  _41
REMARK   18  A    between atoms: _41  and  _42
REMARK   19  A    between atoms: _47  and  _49
REMARK   20  A    between atoms: _49  and  _50
REMARK   21  A    between atoms: _49  and  _52
REMARK   22  A    between atoms: _52  and  _53
REMARK   23  A    between atoms: _56  and  _58
REMARK   24  A    between atoms: _58  and  _59
REMARK   25  A    between atoms: _58  and  _61
REMARK   26  A    between atoms: _61  and  _62
REMARK   27  A    between atoms: _67  and  _69
REMARK   28  A    between atoms: _69  and  _70
REMARK   29  A    between atoms: _69  and  _72
REMARK   30  A    between atoms: _72  and  _73
REMARK   31  A    between atoms: _78  and  _80
REMARK   32  A    between atoms: _80  and  _81
REMARK   33  A    between atoms: _80  and  _83
REMARK   34  A    between atoms: _83  and  _84
REMARK   35  A    between atoms: _89  and  _91
REMARK   36  A    between atoms: _91  and  _92
REMARK   37  A    between atoms: _94  and  _96
REMARK   38  A    between atoms: _96  and  _97
REMARK   39  A    between atoms: _96  and  _99
REMARK   40  A    between atoms: _99  and  _100
REMARK   41  A    between atoms: _103  and  _105
REMARK   42  A    between atoms: _105  and  _106
REMARK   43  A    between atoms: _105  and  _108
REMARK   44  A    between atoms: _108  and  _109
REMARK   45  A    between atoms: _112  and  _114
REMARK   46  A    between atoms: _114  and  _115
REMARK   47  A    between atoms: _114  and  _117
REMARK   48  A    between atoms: _117  and  _118
REMARK   49  A    between atoms: _118  and  _119
REMARK   50  A    between atoms: _122  and  _124
REMARK   51  A    between atoms: _124  and  _125
REMARK   52  A    between atoms: _124  and  _127
REMARK   53  A    between atoms: _127  and  _128
REMARK   54  A    between atoms: _133  and  _135
REMARK   55  A    between atoms: _135  and  _136
REMARK   56  A    between atoms: _139  and  _141
REMARK   57  A    between atoms: _141  and  _142
REMARK   58  A    between atoms: _141  and  _144
REMARK   59  A    between atoms: _144  and  _145
REMARK   60  A    between atoms: _151  and  _153
REMARK   61  A    between atoms: _153  and  _154
REMARK   62  A    between atoms: _153  and  _156
REMARK   63  A    between atoms: _156  and  _157
REMARK   64  A    between atoms: _162  and  _164
REMARK   65  A    between atoms: _164  and  _165
REMARK   66  A    between atoms: _164  and  _167
REMARK   67  A    between atoms: _167  and  _168
REMARK   68  A    between atoms: _171  and  _173
REMARK   69  A    between atoms: _173  and  _174
REMARK   70  A    between atoms: _173  and  _176
REMARK   71  A    between atoms: _176  and  _177
REMARK   72  A    between atoms: _179  and  _181
REMARK   73  A    between atoms: _181  and  _182
REMARK   74  A    between atoms: _181  and  _184
REMARK   75  A    between atoms: _184  and  _185
REMARK   76  A    between atoms: _190  and  _191
REMARK   77  A    between atoms: _193  and  _195
REMARK   78  A    between atoms: _195  and  _196
REMARK   79  A    between atoms: _195  and  _198
REMARK   80  A    between atoms: _198  and  _199
REMARK   81  A    between atoms: _209  and  _211
REMARK   82  A    between atoms: _211  and  _212
REMARK   83  A    between atoms: _211  and  _214
REMARK   84  A    between atoms: _214  and  _215
REMARK   85  A    between atoms: _217  and  _219
REMARK   86  A    between atoms: _219  and  _220
REMARK   87  A    between atoms: _219  and  _222
REMARK   88  A    between atoms: _222  and  _223
REMARK   89  A    between atoms: _233  and  _235
REMARK   90  A    between atoms: _235  and  _236
REMARK   91  A    between atoms: _235  and  _238
REMARK   92  A    between atoms: _238  and  _239
REMARK   93  A    between atoms: _244  and  _245
REMARK   94  A    between atoms: _247  and  _249
REMARK   95  A    between atoms: _249  and  _250
REMARK   96  A    between atoms: _249  and  _252
REMARK   97  A    between atoms: _252  and  _253
REMARK   98  A    between atoms: _256  and  _258
REMARK   99  A    between atoms: _258  and  _259
REMARK  100  A    between atoms: _261  and  _263
REMARK  101  A    between atoms: _263  and  _264
REMARK  102  A    between atoms: _263  and  _266
REMARK  103  A    between atoms: _266  and  _267
REMARK  104  A    between atoms: _272  and  _273
REMARK  105  A    between atoms: _275  and  _277
REMARK  106  A    between atoms: _277  and  _278
REMARK  107  A    between atoms: _277  and  _280
REMARK  108  A    between atoms: _280  and  _281
REMARK  109  A    between atoms: _286  and  _287
REMARK  110  A    between atoms: _289  and  _291
REMARK  111  A    between atoms: _291  and  _292
REMARK  112  A    between atoms: _291  and  _294
REMARK  113  A    between atoms: _294  and  _295
REMARK  114  A    between atoms: _298  and  _300
REMARK  115  A    between atoms: _300  and  _301
REMARK  116  A    between atoms: _300  and  _303
REMARK  117  A    between atoms: _303  and  _304
REMARK  118  A    between atoms: _307  and  _309
REMARK  119  A    between atoms: _309  and  _310
REMARK  120  A    between atoms: _309  and  _312
REMARK  121  A    between atoms: _312  and  _313
REMARK  122  A    between atoms: _313  and  _314
REMARK  123  A    between atoms: _319  and  _321
REMARK  124  A    between atoms: _321  and  _322
REMARK  125  A    between atoms: _324  and  _326
REMARK  126  A    between atoms: _326  and  _327
REMARK  127  A    between atoms: _329  and  _331
REMARK  128  A    between atoms: _331  and  _332
REMARK  129  A    between atoms: _331  and  _334
REMARK  130  A    between atoms: _334  and  _335
REMARK  131  A    between atoms: _335  and  _336
REMARK  132  A    between atoms: _338  and  _340
REMARK  133  A    between atoms: _340  and  _341
REMARK  134  A    between atoms: _340  and  _343
REMARK  135  A    between atoms: _343  and  _344
REMARK  136  A    between atoms: _346  and  _348
REMARK  137  A    between atoms: _348  and  _349
REMARK  138  A    between atoms: _348  and  _351
REMARK  139  A    between atoms: _351  and  _352
REMARK  140  A    between atoms: _355  and  _357
REMARK  141  A    between atoms: _357  and  _358
REMARK  142  A    between atoms: _357  and  _360
REMARK  143  A    between atoms: _360  and  _361
REMARK  144  A    between atoms: _371  and  _373
REMARK  145  A    between atoms: _373  and  _374
REMARK  146  A    between atoms: _377  and  _379
REMARK  147  A    between atoms: _379  and  _380
REMARK  148  A    between atoms: _379  and  _382
REMARK  149  A    between atoms: _382  and  _383
REMARK  150  A    between atoms: _386  and  _388
REMARK  151  A    between atoms: _388  and  _389
REMARK  152  A    between atoms: _388  and  _391
REMARK  153  A    between atoms: _391  and  _392
REMARK  154  A    between atoms: _392  and  _393
REMARK  155  A    between atoms: _393  and  _394
REMARK                            x       y       z     vdW  Elec       q    Type
REMARK                         _______ _______ _______ _____ _____    ______ ____
ROOT
ATOM      1  CB  HIS A   1     -28.308 -16.168 -56.059  0.00  0.00    +0.072 C 
ENDROOT
BRANCH   1   2
ATOM      2  CG  HIS A   1     -29.569 -16.983 -56.099  0.00  0.00    +0.082 A 
ATOM      3  ND1 HIS A   1     -30.504 -16.966 -55.080  0.00  0.00    -0.227 NA
ATOM      4  CE1 HIS A   1     -31.498 -17.783 -55.386  0.00  0.00    +0.199 A 
ATOM      5  NE2 HIS A   1     -31.245 -18.327 -56.564  0.00  0.00    -0.221 NA
ATOM      6  CD2 HIS A   1     -30.044 -17.844 -57.031  0.00  0.00    +0.115 A 
ENDBRANCH   1   2
BRANCH   1   7
ATOM      7  CA  HIS A   1     -28.533 -14.656 -56.263  0.00  0.00    +0.139 C 
BRANCH   7   8
ATOM      8  N   HIS A   1     -28.973 -14.392 -57.633  0.00  0.00    -0.239 NA
ATOM      9  H   HIS A   1     -29.986 -14.257 -57.825  0.00  0.00    +0.142 HD
ENDBRANCH   7   8
BRANCH   7  10
ATOM     10  C   HIS A   1     -27.269 -13.833 -55.857  0.00  0.00    +0.224 C 
ATOM     11  O   HIS A   1     -26.296 -14.372 -55.301  0.00  0.00    -0.287 OA
ENDBRANCH   7  10
ENDBRANCH   1   7
TORSDOF 4
REMARK  Name = ../refined-set-2016/4azc/4azc_pocket.pdb
REMARK  155 active torsions:
REMARK  status: ('A' for Active; 'I' for Inactive)
REMARK    1  A    between atoms: _1  and  _3
REMARK    2  A    between atoms: _3  and  _4
REMARK    3  A    between atoms: _3  and  _6
REMARK    4  A    between atoms: _6  and  _7
REMARK    5  A    between atoms: _10  and  _12
REMARK    6  A    between atoms: _12  and  _13
REMARK    7  A    between atoms: _12  and  _15
REMARK    8  A    between atoms: _15  and  _16
REMARK    9  A    between atoms: _16  and  _17
REMARK   10  A    between atoms: _17  and  _18
REMARK   11  A    between atoms: _27  and  _29
REMARK   12  A    between atoms: _29  and  _30
REMARK   13  A    between atoms: _29  and  _32
REMARK   14  A    between atoms: _32  and  _33
REMARK   15  A    between atoms: _36  and  _38
REMARK   16  A    between atoms: _38  and  _39
REMARK   17  A    between atoms: _38  and  _41
REMARK   18  A    between atoms: _41  and  _42
REMARK   19  A    between atoms: _47  and  _49
REMARK   20  A    between atoms: _49  and  _50
REMARK   21  A    between atoms: _49  and  _52
REMARK   22  A    between atoms: _52  and  _53
REMARK   23  A    between atoms: _56  and  _58
REMARK   24  A    between atoms: _58  and  _59
REMARK   25  A    between atoms: _58  and  _61
REMARK   26  A    between atoms: _61  and  _62
REMARK   27  A    between atoms: _67  and  _69
REMARK   28  A    between atoms: _69  and  _70
REMARK   29  A    between atoms: _69  and  _72
REMARK   30  A    between atoms: _72  and  _73
REMARK   31  A    between atoms: _78  and  _80
REMARK   32  A    between atoms: _80  and  _81
REMARK   33  A    between atoms: _80  and  _83
REMARK   34  A    between atoms: _83  and  _84
REMARK   35  A    between atoms: _89  and  _91
REMARK   36  A    between atoms: _91  and  _92
REMARK   37  A    between atoms: _94  and  _96
REMARK   38  A    between atoms: _96  and  _97
REMARK   39  A    between atoms: _96  and  _99
REMARK   40  A    between atoms: _99  and  _100
REMARK   41  A    between atoms: _103  and  _105
REMARK   42  A    between atoms: _105  and  _106
REMARK   43  A    between atoms: _105  and  _108
REMARK   44  A    between atoms: _108  and  _109
REMARK   45  A    between atoms: _112  and  _114
REMARK   46  A    between atoms: _114  and  _115
REMARK   47  A    between atoms: _114  and  _117
REMARK   48  A    between atoms: _117  and  _118
REMARK   49  A    between atoms: _118  and  _119
REMARK   50  A    between atoms: _122  and  _124
REMARK   51  A    between atoms: _124  and  _125
REMARK   52  A    between atoms: _124  and  _127
REMARK   53  A    between atoms: _127  and  _128
REMARK   54  A    between atoms: _133  and  _135
REMARK   55  A    between atoms: _135  and  _136
REMARK   56  A    between atoms: _139  and  _141
REMARK   57  A    between atoms: _141  and  _142
REMARK   58  A    between atoms: _141  and  _144
REMARK   59  A    between atoms: _144  and  _145
REMARK   60  A    between atoms: _151  and  _153
REMARK   61  A    between atoms: _153  and  _154
REMARK   62  A    between atoms: _153  and  _156
REMARK   63  A    between atoms: _156  and  _157
REMARK   64  A    between atoms: _162  and  _164
REMARK   65  A    between atoms: _164  and  _165
REMARK   66  A    between atoms: _164  and  _167
REMARK   67  A    between atoms: _167  and  _168
REMARK   68  A    between atoms: _171  and  _173
REMARK   69  A    between atoms: _173  and  _174
REMARK   70  A    between atoms: _173  and  _176
REMARK   71  A    between atoms: _176  and  _177
REMARK   72  A    between atoms: _179  and  _181
REMARK   73  A    between atoms: _181  and  _182
REMARK   74  A    between atoms: _181  and  _184
REMARK   75  A    between atoms: _184  and  _185
REMARK   76  A    between atoms: _190  and  _191
REMARK   77  A    between atoms: _193  and  _195
REMARK   78  A    between atoms: _195  and  _196
REMARK   79  A    between atoms: _195  and  _198
REMARK   80  A    between atoms: _198  and  _199
REMARK   81  A    between atoms: _209  and  _211
REMARK   82  A    between atoms: _211  and  _212
REMARK   83  A    between atoms: _211  and  _214
REMARK   84  A    between atoms: _214  and  _215
REMARK   85  A    between atoms: _217  and  _219
REMARK   86  A    between atoms: _219  and  _220
REMARK   87  A    between atoms: _219  and  _222
REMARK   88  A    between atoms: _222  and  _223
REMARK   89  A    between atoms: _233  and  _235
REMARK   90  A    between atoms: _235  and  _236
REMARK   91  A    between atoms: _235  and  _238
REMARK   92  A    between atoms: _238  and  _239
REMARK   93  A    between atoms: _244  and  _245
REMARK   94  A    between atoms: _247  and  _249
REMARK   95  A    between atoms: _249  and  _250
REMARK   96  A    between atoms: _249  and  _252
REMARK   97  A    between atoms: _252  and  _253
REMARK   98  A    between atoms: _256  and  _258
REMARK   99  A    between atoms: _258  and  _259
REMARK  100  A    between atoms: _261  and  _263
REMARK  101  A    between atoms: _263  and  _264
REMARK  102  A    between atoms: _263  and  _266
REMARK  103  A    between atoms: _266  and  _267
REMARK  104  A    between atoms: _272  and  _273
REMARK  105  A    between atoms: _275  and  _277
REMARK  106  A    between atoms: _277  and  _278
REMARK  107  A    between atoms: _277  and  _280
REMARK  108  A    between atoms: _280  and  _281
REMARK  109  A    between atoms: _286  and  _287
REMARK  110  A    between atoms: _289  and  _291
REMARK  111  A    between atoms: _291  and  _292
REMARK  112  A    between atoms: _291  and  _294
REMARK  113  A    between atoms: _294  and  _295
REMARK  114  A    between atoms: _298  and  _300
REMARK  115  A    between atoms: _300  and  _301
REMARK  116  A    between atoms: _300  and  _303
REMARK  117  A    between atoms: _303  and  _304
REMARK  118  A    between atoms: _307  and  _309
REMARK  119  A    between atoms: _309  and  _310
REMARK  120  A    between atoms: _309  and  _312
REMARK  121  A    between atoms: _312  and  _313
REMARK  122  A    between atoms: _313  and  _314
REMARK  123  A    between atoms: _319  and  _321
REMARK  124  A    between atoms: _321  and  _322
REMARK  125  A    between atoms: _324  and  _326
REMARK  126  A    between atoms: _326  and  _327
REMARK  127  A    between atoms: _329  and  _331
REMARK  128  A    between atoms: _331  and  _332
REMARK  129  A    between atoms: _331  and  _334
REMARK  130  A    between atoms: _334  and  _335
REMARK  131  A    between atoms: _335  and  _336
REMARK  132  A    between atoms: _338  and  _340
REMARK  133  A    between atoms: _340  and  _341
REMARK  134  A    between atoms: _340  and  _343
REMARK  135  A    between atoms: _343  and  _344
REMARK  136  A    between atoms: _346  and  _348
REMARK  137  A    between atoms: _348  and  _349
REMARK  138  A    between atoms: _348  and  _351
REMARK  139  A    between atoms: _351  and  _352
REMARK  140  A    between atoms: _355  and  _357
REMARK  141  A    between atoms: _357  and  _358
REMARK  142  A    between atoms: _357  and  _360
REMARK  143  A    between atoms: _360  and  _361
REMARK  144  A    between atoms: _371  and  _373
REMARK  145  A    between atoms: _373  and  _374
REMARK  146  A    between atoms: _377  and  _379
REMARK  147  A    between atoms: _379  and  _380
REMARK  148  A    between atoms: _379  and  _382
REMARK  149  A    between atoms: _382  and  _383
REMARK  150  A    between atoms: _386  and  _388
REMARK  151  A    between atoms: _388  and  _389
REMARK  152  A    between atoms: _388  and  _391
REMARK  153  A    between atoms: _391  and  _392
REMARK  154  A    between atoms: _392  and  _393
REMARK  155  A    between atoms: _393  and  _394
REMARK                            x       y       z     vdW  Elec       q    Type
REMARK                         _______ _______ _______ _____ _____    ______ ____
ROOT
ATOM      1  CB  ASN A   1     -20.001 -23.931 -58.310  0.00  0.00    +0.110 C 
ENDROOT
BRANCH   1   2
ATOM      2  CG  ASN A   1     -21.479 -23.990 -58.708  0.00  0.00    +0.221 C 
ATOM      3  ND2 ASN A   1     -22.273 -24.615 -57.864  0.00  0.00    -0.329 N 
ATOM      4 HD21 ASN A   1     -21.886 -25.015 -56.985  0.00  0.00    +0.145 HD
ATOM      5 HD22 ASN A   1     -23.287 -24.709 -58.076  0.00  0.00    +0.145 HD
ATOM      6  OD1 ASN A   1     -21.896 -23.498 -59.767  0.00  0.00    -0.275 OA
ENDBRANCH   1   2
BRANCH   1   7
ATOM      7  CA  ASN A   1     -19.116 -23.222 -59.362  0.00  0.00    +0.142 C 
BRANCH   7   8
ATOM      8  N   ASN A   1     -17.697 -23.300 -58.976  0.00  0.00    -0.239 NA
ATOM      9  H   ASN A   1     -17.445 -23.215 -57.970  0.00  0.00    +0.142 HD
ENDBRANCH   7   8
BRANCH   7  10
ATOM     10  C   ASN A   1     -19.575 -21.777 -59.503  0.00  0.00    +0.225 C 
ATOM     11  O   ASN A   1     -19.732 -21.064 -58.496  0.00  0.00    -0.287 OA
ENDBRANCH   7  10
ENDBRANCH   1   7
TORSDOF 4
REMARK  Name = ../refined-set-2016/4azc/4azc_pocket.pdb
REMARK  155 active torsions:
REMARK  status: ('A' for Active; 'I' for Inactive)
REMARK    1  A    between atoms: _1  and  _3
REMARK    2  A    between atoms: _3  and  _4
REMARK    3  A    between atoms: _3  and  _6
REMARK    4  A    between atoms: _6  and  _7
REMARK    5  A    between atoms: _10  and  _12
REMARK    6  A    between atoms: _12  and  _13
REMARK    7  A    between atoms: _12  and  _15
REMARK    8  A    between atoms: _15  and  _16
REMARK    9  A    between atoms: _16  and  _17
REMARK   10  A    between atoms: _17  and  _18
REMARK   11  A    between atoms: _27  and  _29
REMARK   12  A    between atoms: _29  and  _30
REMARK   13  A    between atoms: _29  and  _32
REMARK   14  A    between atoms: _32  and  _33
REMARK   15  A    between atoms: _36  and  _38
REMARK   16  A    between atoms: _38  and  _39
REMARK   17  A    between atoms: _38  and  _41
REMARK   18  A    between atoms: _41  and  _42
REMARK   19  A    between atoms: _47  and  _49
REMARK   20  A    between atoms: _49  and  _50
REMARK   21  A    between atoms: _49  and  _52
REMARK   22  A    between atoms: _52  and  _53
REMARK   23  A    between atoms: _56  and  _58
REMARK   24  A    between atoms: _58  and  _59
REMARK   25  A    between atoms: _58  and  _61
REMARK   26  A    between atoms: _61  and  _62
REMARK   27  A    between atoms: _67  and  _69
REMARK   28  A    between atoms: _69  and  _70
REMARK   29  A    between atoms: _69  and  _72
REMARK   30  A    between atoms: _72  and  _73
REMARK   31  A    between atoms: _78  and  _80
REMARK   32  A    between atoms: _80  and  _81
REMARK   33  A    between atoms: _80  and  _83
REMARK   34  A    between atoms: _83  and  _84
REMARK   35  A    between atoms: _89  and  _91
REMARK   36  A    between atoms: _91  and  _92
REMARK   37  A    between atoms: _94  and  _96
REMARK   38  A    between atoms: _96  and  _97
REMARK   39  A    between atoms: _96  and  _99
REMARK   40  A    between atoms: _99  and  _100
REMARK   41  A    between atoms: _103  and  _105
REMARK   42  A    between atoms: _105  and  _106
REMARK   43  A    between atoms: _105  and  _108
REMARK   44  A    between atoms: _108  and  _109
REMARK   45  A    between atoms: _112  and  _114
REMARK   46  A    between atoms: _114  and  _115
REMARK   47  A    between atoms: _114  and  _117
REMARK   48  A    between atoms: _117  and  _118
REMARK   49  A    between atoms: _118  and  _119
REMARK   50  A    between atoms: _122  and  _124
REMARK   51  A    between atoms: _124  and  _125
REMARK   52  A    between atoms: _124  and  _127
REMARK   53  A    between atoms: _127  and  _128
REMARK   54  A    between atoms: _133  and  _135
REMARK   55  A    between atoms: _135  and  _136
REMARK   56  A    between atoms: _139  and  _141
REMARK   57  A    between atoms: _141  and  _142
REMARK   58  A    between atoms: _141  and  _144
REMARK   59  A    between atoms: _144  and  _145
REMARK   60  A    between atoms: _151  and  _153
REMARK   61  A    between atoms: _153  and  _154
REMARK   62  A    between atoms: _153  and  _156
REMARK   63  A    between atoms: _156  and  _157
REMARK   64  A    between atoms: _162  and  _164
REMARK   65  A    between atoms: _164  and  _165
REMARK   66  A    between atoms: _164  and  _167
REMARK   67  A    between atoms: _167  and  _168
REMARK   68  A    between atoms: _171  and  _173
REMARK   69  A    between atoms: _173  and  _174
REMARK   70  A    between atoms: _173  and  _176
REMARK   71  A    between atoms: _176  and  _177
REMARK   72  A    between atoms: _179  and  _181
REMARK   73  A    between atoms: _181  and  _182
REMARK   74  A    between atoms: _181  and  _184
REMARK   75  A    between atoms: _184  and  _185
REMARK   76  A    between atoms: _190  and  _191
REMARK   77  A    between atoms: _193  and  _195
REMARK   78  A    between atoms: _195  and  _196
REMARK   79  A    between atoms: _195  and  _198
REMARK   80  A    between atoms: _198  and  _199
REMARK   81  A    between atoms: _209  and  _211
REMARK   82  A    between atoms: _211  and  _212
REMARK   83  A    between atoms: _211  and  _214
REMARK   84  A    between atoms: _214  and  _215
REMARK   85  A    between atoms: _217  and  _219
REMARK   86  A    between atoms: _219  and  _220
REMARK   87  A    between atoms: _219  and  _222
REMARK   88  A    between atoms: _222  and  _223
REMARK   89  A    between atoms: _233  and  _235
REMARK   90  A    between atoms: _235  and  _236
REMARK   91  A    between atoms: _235  and  _238
REMARK   92  A    between atoms: _238  and  _239
REMARK   93  A    between atoms: _244  and  _245
REMARK   94  A    between atoms: _247  and  _249
REMARK   95  A    between atoms: _249  and  _250
REMARK   96  A    between atoms: _249  and  _252
REMARK   97  A    between atoms: _252  and  _253
REMARK   98  A    between atoms: _256  and  _258
REMARK   99  A    between atoms: _258  and  _259
REMARK  100  A    between atoms: _261  and  _263
REMARK  101  A    between atoms: _263  and  _264
REMARK  102  A    between atoms: _263  and  _266
REMARK  103  A    between atoms: _266  and  _267
REMARK  104  A    between atoms: _272  and  _273
REMARK  105  A    between atoms: _275  and  _277
REMARK  106  A    between atoms: _277  and  _278
REMARK  107  A    between atoms: _277  and  _280
REMARK  108  A    between atoms: _280  and  _281
REMARK  109  A    between atoms: _286  and  _287
REMARK  110  A    between atoms: _289  and  _291
REMARK  111  A    between atoms: _291  and  _292
REMARK  112  A    between atoms: _291  and  _294
REMARK  113  A    between atoms: _294  and  _295
REMARK  114  A    between atoms: _298  and  _300
REMARK  115  A    between atoms: _300  and  _301
REMARK  116  A    between atoms: _300  and  _303
REMARK  117  A    between atoms: _303  and  _304
REMARK  118  A    between atoms: _307  and  _309
REMARK  119  A    between atoms: _309  and  _310
REMARK  120  A    between atoms: _309  and  _312
REMARK  121  A    between atoms: _312  and  _313
REMARK  122  A    between atoms: _313  and  _314
REMARK  123  A    between atoms: _319  and  _321
REMARK  124  A    between atoms: _321  and  _322
REMARK  125  A    between atoms: _324  and  _326
REMARK  126  A    between atoms: _326  and  _327
REMARK  127  A    between atoms: _329  and  _331
REMARK  128  A    between atoms: _331  and  _332
REMARK  129  A    between atoms: _331  and  _334
REMARK  130  A    between atoms: _334  and  _335
REMARK  131  A    between atoms: _335  and  _336
REMARK  132  A    between atoms: _338  and  _340
REMARK  133  A    between atoms: _340  and  _341
REMARK  134  A    between atoms: _340  and  _343
REMARK  135  A    between atoms: _343  and  _344
REMARK  136  A    between atoms: _346  and  _348
REMARK  137  A    between atoms: _348  and  _349
REMARK  138  A    between atoms: _348  and  _351
REMARK  139  A    between atoms: _351  and  _352
REMARK  140  A    between atoms: _355  and  _357
REMARK  141  A    between atoms: _357  and  _358
REMARK  142  A    between atoms: _357  and  _360
REMARK  143  A    between atoms: _360  and  _361
REMARK  144  A    between atoms: _371  and  _373
REMARK  145  A    between atoms: _373  and  _374
REMARK  146  A    between atoms: _377  and  _379
REMARK  147  A    between atoms: _379  and  _380
REMARK  148  A    between atoms: _379  and  _382
REMARK  149  A    between atoms: _382  and  _383
REMARK  150  A    between atoms: _386  and  _388
REMARK  151  A    between atoms: _388  and  _389
REMARK  152  A    between atoms: _388  and  _391
REMARK  153  A    between atoms: _391  and  _392
REMARK  154  A    between atoms: _392  and  _393
REMARK  155  A    between atoms: _393  and  _394
REMARK                            x       y       z     vdW  Elec       q    Type
REMARK                         _______ _______ _______ _____ _____    ______ ____
ROOT
ATOM      1  CA  ASP A   3     -29.476 -20.482 -61.316  0.00  0.00    +0.160 C 
ENDROOT
BRANCH   1   3
ATOM      2  C   THR A   2     -27.772 -19.432 -62.693  0.00  0.00    +0.243 C 
ATOM      3  N   ASP A   3     -28.101 -20.045 -61.562  0.00  0.00    -0.296 N 
ATOM      4  H   ASP A   3     -27.372 -20.217 -60.841  0.00  0.00    +0.150 HD
ATOM      5  O   THR A   2     -28.609 -19.208 -63.590  0.00  0.00    -0.273 OA
BRANCH   2   6
ATOM      6  CA  THR A   2     -26.303 -18.991 -62.850  0.00  0.00    +0.176 C 
BRANCH   6   8
ATOM      7  C   GLY A   1     -24.883 -20.635 -61.593  0.00  0.00    +0.240 C 
ATOM      8  N   THR A   2     -25.367 -19.403 -61.778  0.00  0.00    -0.295 N 
ATOM      9  H   THR A   2     -25.059 -18.668 -61.110  0.00  0.00    +0.150 HD
ATOM     10  O   GLY A   1     -25.173 -21.609 -62.293  0.00  0.00    -0.274 OA
BRANCH   7  11
ATOM     11  CA  GLY A   1     -23.939 -20.793 -60.405  0.00  0.00    +0.169 C 
BRANCH  11  12
ATOM     12  N   GLY A   1     -22.510 -20.843 -60.700  0.00  0.00    -0.236 NA
ATOM     13  H   GLY A   1     -22.047 -21.771 -60.773  0.00  0.00    +0.142 HD
ENDBRANCH  11  12
ENDBRANCH   7  11
ENDBRANCH   6   8
BRANCH   6  14
ATOM     14  CB  THR A   2     -25.760 -19.261 -64.308  0.00  0.00    +0.137 C 
ATOM     15  CG2 THR A   2     -24.416 -18.573 -64.548  0.00  0.00    +0.034 C 
BRANCH  14  16
ATOM     16  OG1 THR A   2     -25.613 -20.668 -64.535  0.00  0.00    -0.382 OA
ATOM     17  HG1 THR A   2     -24.974 -21.042 -63.878  0.00  0.00    +0.210 HD
ENDBRANCH  14  16
ENDBRANCH   6  14
ENDBRANCH   2   6
ENDBRANCH   1   3
BRANCH   1  18
ATOM     18  C   ASP A   3     -30.469 -19.320 -61.157  0.00  0.00    +0.241 C 
ATOM     19  O   ASP A   3     -30.094 -18.203 -60.790  0.00  0.00    -0.273 OA
ATOM     20  N   GLU A   4     -31.735 -19.620 -61.457  0.00  0.00    -0.298 N 
ATOM     21  H   GLU A   4     -31.921 -20.511 -61.959  0.00  0.00    +0.150 HD
BRANCH  20  22
ATOM     22  CA  GLU A   4     -32.887 -18.759 -61.117  0.00  0.00    +0.137 C 
BRANCH  22  23
ATOM     23  C   GLU A   4     -32.747 -17.246 -61.437  0.00  0.00    +0.227 C 
ATOM     24  O   GLU A   4     -33.049 -16.399 -60.571  0.00  0.00    -0.286 OA
ENDBRANCH  22  23
BRANCH  22  25
ATOM     25  CB  GLU A   4     -33.281 -18.984 -59.635  0.00  0.00    +0.039 C 
BRANCH  25  26
ATOM     26  CG  GLU A   4     -33.906 -20.379 -59.332  0.00  0.00    +0.116 C 
BRANCH  26  27
ATOM     27  CD  GLU A   4     -34.232 -20.598 -57.833  0.00  0.00    +0.365 C 
ATOM     28  OE2 GLU A   4     -33.584 -19.971 -56.964  0.00  0.00    -0.246 OA
ATOM     29  OE1 GLU A   4     -35.139 -21.402 -57.550  0.00  0.00    -0.246 OA
ENDBRANCH  26  27
ENDBRANCH  25  26
ENDBRANCH  22  25
ENDBRANCH  20  22
ENDBRANCH   1  18
BRANCH   1  30
ATOM     30  CB  ASP A   3     -29.554 -21.407 -60.087  0.00  0.00    +0.143 C 
BRANCH  30  31
ATOM     31  CG  ASP A   3     -29.176 -20.710 -58.796  0.00  0.00    +0.367 C 
ATOM     32  OD2 ASP A   3     -29.924 -20.834 -57.792  0.00  0.00    -0.246 OA
ATOM     33  OD1 ASP A   3     -28.125 -20.062 -58.774  0.00  0.00    -0.246 OA
ENDBRANCH  30  31
ENDBRANCH   1  30
TORSDOF 15
REMARK  Name = ../refined-set-2016/4azc/4azc_pocket.pdb
REMARK  155 active torsions:
REMARK  status: ('A' for Active; 'I' for Inactive)
REMARK    1  A    between atoms: _1  and  _3
REMARK    2  A    between atoms: _3  and  _4
REMARK    3  A    between atoms: _3  and  _6
REMARK    4  A    between atoms: _6  and  _7
REMARK    5  A    between atoms: _10  and  _12
REMARK    6  A    between atoms: _12  and  _13
REMARK    7  A    between atoms: _12  and  _15
REMARK    8  A    between atoms: _15  and  _16
REMARK    9  A    between atoms: _16  and  _17
REMARK   10  A    between atoms: _17  and  _18
REMARK   11  A    between atoms: _27  and  _29
REMARK   12  A    between atoms: _29  and  _30
REMARK   13  A    between atoms: _29  and  _32
REMARK   14  A    between atoms: _32  and  _33
REMARK   15  A    between atoms: _36  and  _38
REMARK   16  A    between atoms: _38  and  _39
REMARK   17  A    between atoms: _38  and  _41
REMARK   18  A    between atoms: _41  and  _42
REMARK   19  A    between atoms: _47  and  _49
REMARK   20  A    between atoms: _49  and  _50
REMARK   21  A    between atoms: _49  and  _52
REMARK   22  A    between atoms: _52  and  _53
REMARK   23  A    between atoms: _56  and  _58
REMARK   24  A    between atoms: _58  and  _59
REMARK   25  A    between atoms: _58  and  _61
REMARK   26  A    between atoms: _61  and  _62
REMARK   27  A    between atoms: _67  and  _69
REMARK   28  A    between atoms: _69  and  _70
REMARK   29  A    between atoms: _69  and  _72
REMARK   30  A    between atoms: _72  and  _73
REMARK   31  A    between atoms: _78  and  _80
REMARK   32  A    between atoms: _80  and  _81
REMARK   33  A    between atoms: _80  and  _83
REMARK   34  A    between atoms: _83  and  _84
REMARK   35  A    between atoms: _89  and  _91
REMARK   36  A    between atoms: _91  and  _92
REMARK   37  A    between atoms: _94  and  _96
REMARK   38  A    between atoms: _96  and  _97
REMARK   39  A    between atoms: _96  and  _99
REMARK   40  A    between atoms: _99  and  _100
REMARK   41  A    between atoms: _103  and  _105
REMARK   42  A    between atoms: _105  and  _106
REMARK   43  A    between atoms: _105  and  _108
REMARK   44  A    between atoms: _108  and  _109
REMARK   45  A    between atoms: _112  and  _114
REMARK   46  A    between atoms: _114  and  _115
REMARK   47  A    between atoms: _114  and  _117
REMARK   48  A    between atoms: _117  and  _118
REMARK   49  A    between atoms: _118  and  _119
REMARK   50  A    between atoms: _122  and  _124
REMARK   51  A    between atoms: _124  and  _125
REMARK   52  A    between atoms: _124  and  _127
REMARK   53  A    between atoms: _127  and  _128
REMARK   54  A    between atoms: _133  and  _135
REMARK   55  A    between atoms: _135  and  _136
REMARK   56  A    between atoms: _139  and  _141
REMARK   57  A    between atoms: _141  and  _142
REMARK   58  A    between atoms: _141  and  _144
REMARK   59  A    between atoms: _144  and  _145
REMARK   60  A    between atoms: _151  and  _153
REMARK   61  A    between atoms: _153  and  _154
REMARK   62  A    between atoms: _153  and  _156
REMARK   63  A    between atoms: _156  and  _157
REMARK   64  A    between atoms: _162  and  _164
REMARK   65  A    between atoms: _164  and  _165
REMARK   66  A    between atoms: _164  and  _167
REMARK   67  A    between atoms: _167  and  _168
REMARK   68  A    between atoms: _171  and  _173
REMARK   69  A    between atoms: _173  and  _174
REMARK   70  A    between atoms: _173  and  _176
REMARK   71  A    between atoms: _176  and  _177
REMARK   72  A    between atoms: _179  and  _181
REMARK   73  A    between atoms: _181  and  _182
REMARK   74  A    between atoms: _181  and  _184
REMARK   75  A    between atoms: _184  and  _185
REMARK   76  A    between atoms: _190  and  _191
REMARK   77  A    between atoms: _193  and  _195
REMARK   78  A    between atoms: _195  and  _196
REMARK   79  A    between atoms: _195  and  _198
REMARK   80  A    between atoms: _198  and  _199
REMARK   81  A    between atoms: _209  and  _211
REMARK   82  A    between atoms: _211  and  _212
REMARK   83  A    between atoms: _211  and  _214
REMARK   84  A    between atoms: _214  and  _215
REMARK   85  A    between atoms: _217  and  _219
REMARK   86  A    between atoms: _219  and  _220
REMARK   87  A    between atoms: _219  and  _222
REMARK   88  A    between atoms: _222  and  _223
REMARK   89  A    between atoms: _233  and  _235
REMARK   90  A    between atoms: _235  and  _236
REMARK   91  A    between atoms: _235  and  _238
REMARK   92  A    between atoms: _238  and  _239
REMARK   93  A    between atoms: _244  and  _245
REMARK   94  A    between atoms: _247  and  _249
REMARK   95  A    between atoms: _249  and  _250
REMARK   96  A    between atoms: _249  and  _252
REMARK   97  A    between atoms: _252  and  _253
REMARK   98  A    between atoms: _256  and  _258
REMARK   99  A    between atoms: _258  and  _259
REMARK  100  A    between atoms: _261  and  _263
REMARK  101  A    between atoms: _263  and  _264
REMARK  102  A    between atoms: _263  and  _266
REMARK  103  A    between atoms: _266  and  _267
REMARK  104  A    between atoms: _272  and  _273
REMARK  105  A    between atoms: _275  and  _277
REMARK  106  A    between atoms: _277  and  _278
REMARK  107  A    between atoms: _277  and  _280
REMARK  108  A    between atoms: _280  and  _281
REMARK  109  A    between atoms: _286  and  _287
REMARK  110  A    between atoms: _289  and  _291
REMARK  111  A    between atoms: _291  and  _292
REMARK  112  A    between atoms: _291  and  _294
REMARK  113  A    between atoms: _294  and  _295
REMARK  114  A    between atoms: _298  and  _300
REMARK  115  A    between atoms: _300  and  _301
REMARK  116  A    between atoms: _300  and  _303
REMARK  117  A    between atoms: _303  and  _304
REMARK  118  A    between atoms: _307  and  _309
REMARK  119  A    between atoms: _309  and  _310
REMARK  120  A    between atoms: _309  and  _312
REMARK  121  A    between atoms: _312  and  _313
REMARK  122  A    between atoms: _313  and  _314
REMARK  123  A    between atoms: _319  and  _321
REMARK  124  A    between atoms: _321  and  _322
REMARK  125  A    between atoms: _324  and  _326
REMARK  126  A    between atoms: _326  and  _327
REMARK  127  A    between atoms: _329  and  _331
REMARK  128  A    between atoms: _331  and  _332
REMARK  129  A    between atoms: _331  and  _334
REMARK  130  A    between atoms: _334  and  _335
REMARK  131  A    between atoms: _335  and  _336
REMARK  132  A    between atoms: _338  and  _340
REMARK  133  A    between atoms: _340  and  _341
REMARK  134  A    between atoms: _340  and  _343
REMARK  135  A    between atoms: _343  and  _344
REMARK  136  A    between atoms: _346  and  _348
REMARK  137  A    between atoms: _348  and  _349
REMARK  138  A    between atoms: _348  and  _351
REMARK  139  A    between atoms: _351  and  _352
REMARK  140  A    between atoms: _355  and  _357
REMARK  141  A    between atoms: _357  and  _358
REMARK  142  A    between atoms: _357  and  _360
REMARK  143  A    between atoms: _360  and  _361
REMARK  144  A    between atoms: _371  and  _373
REMARK  145  A    between atoms: _373  and  _374
REMARK  146  A    between atoms: _377  and  _379
REMARK  147  A    between atoms: _379  and  _380
REMARK  148  A    between atoms: _379  and  _382
REMARK  149  A    between atoms: _382  and  _383
REMARK  150  A    between atoms: _386  and  _388
REMARK  151  A    between atoms: _388  and  _389
REMARK  152  A    between atoms: _388  and  _391
REMARK  153  A    between atoms: _391  and  _392
REMARK  154  A    between atoms: _392  and  _393
REMARK  155  A    between atoms: _393  and  _394
REMARK                            x       y       z     vdW  Elec       q    Type
REMARK                         _______ _______ _______ _____ _____    ______ ____
ROOT
ATOM      1  CB  ASN A   1     -36.613 -16.408 -59.659  0.00  0.00    +0.110 C 
ENDROOT
BRANCH   1   2
ATOM      2  CG  ASN A   1     -36.595 -17.349 -60.874  0.00  0.00    +0.221 C 
ATOM      3  OD1 ASN A   1     -36.553 -18.576 -60.722  0.00  0.00    -0.275 OA
ATOM      4  ND2 ASN A   1     -36.648 -16.777 -62.082  0.00  0.00    -0.329 N 
ATOM      5 HD21 ASN A   1     -36.682 -15.741 -62.166  0.00  0.00    +0.145 HD
ATOM      6 HD22 ASN A   1     -36.655 -17.368 -62.938  0.00  0.00    +0.145 HD
ENDBRANCH   1   2
BRANCH   1   7
ATOM      7  CA  ASN A   1     -36.862 -14.939 -60.045  0.00  0.00    +0.142 C 
BRANCH   7   8
ATOM      8  N   ASN A   1     -35.619 -14.289 -60.481  0.00  0.00    -0.239 NA
ATOM      9  H   ASN A   1     -34.703 -14.697 -60.206  0.00  0.00    +0.142 HD
ENDBRANCH   7   8
BRANCH   7  10
ATOM     10  C   ASN A   1     -37.672 -14.179 -58.967  0.00  0.00    +0.225 C 
ATOM     11  O   ASN A   1     -38.770 -14.601 -58.610  0.00  0.00    -0.287 OA
ENDBRANCH   7  10
ENDBRANCH   1   7
TORSDOF 4
REMARK  Name = ../refined-set-2016/4azc/4azc_pocket.pdb
REMARK  155 active torsions:
REMARK  status: ('A' for Active; 'I' for Inactive)
REMARK    1  A    between atoms: _1  and  _3
REMARK    2  A    between atoms: _3  and  _4
REMARK    3  A    between atoms: _3  and  _6
REMARK    4  A    between atoms: _6  and  _7
REMARK    5  A    between atoms: _10  and  _12
REMARK    6  A    between atoms: _12  and  _13
REMARK    7  A    between atoms: _12  and  _15
REMARK    8  A    between atoms: _15  and  _16
REMARK    9  A    between atoms: _16  and  _17
REMARK   10  A    between atoms: _17  and  _18
REMARK   11  A    between atoms: _27  and  _29
REMARK   12  A    between atoms: _29  and  _30
REMARK   13  A    between atoms: _29  and  _32
REMARK   14  A    between atoms: _32  and  _33
REMARK   15  A    between atoms: _36  and  _38
REMARK   16  A    between atoms: _38  and  _39
REMARK   17  A    between atoms: _38  and  _41
REMARK   18  A    between atoms: _41  and  _42
REMARK   19  A    between atoms: _47  and  _49
REMARK   20  A    between atoms: _49  and  _50
REMARK   21  A    between atoms: _49  and  _52
REMARK   22  A    between atoms: _52  and  _53
REMARK   23  A    between atoms: _56  and  _58
REMARK   24  A    between atoms: _58  and  _59
REMARK   25  A    between atoms: _58  and  _61
REMARK   26  A    between atoms: _61  and  _62
REMARK   27  A    between atoms: _67  and  _69
REMARK   28  A    between atoms: _69  and  _70
REMARK   29  A    between atoms: _69  and  _72
REMARK   30  A    between atoms: _72  and  _73
REMARK   31  A    between atoms: _78  and  _80
REMARK   32  A    between atoms: _80  and  _81
REMARK   33  A    between atoms: _80  and  _83
REMARK   34  A    between atoms: _83  and  _84
REMARK   35  A    between atoms: _89  and  _91
REMARK   36  A    between atoms: _91  and  _92
REMARK   37  A    between atoms: _94  and  _96
REMARK   38  A    between atoms: _96  and  _97
REMARK   39  A    between atoms: _96  and  _99
REMARK   40  A    between atoms: _99  and  _100
REMARK   41  A    between atoms: _103  and  _105
REMARK   42  A    between atoms: _105  and  _106
REMARK   43  A    between atoms: _105  and  _108
REMARK   44  A    between atoms: _108  and  _109
REMARK   45  A    between atoms: _112  and  _114
REMARK   46  A    between atoms: _114  and  _115
REMARK   47  A    between atoms: _114  and  _117
REMARK   48  A    between atoms: _117  and  _118
REMARK   49  A    between atoms: _118  and  _119
REMARK   50  A    between atoms: _122  and  _124
REMARK   51  A    between atoms: _124  and  _125
REMARK   52  A    between atoms: _124  and  _127
REMARK   53  A    between atoms: _127  and  _128
REMARK   54  A    between atoms: _133  and  _135
REMARK   55  A    between atoms: _135  and  _136
REMARK   56  A    between atoms: _139  and  _141
REMARK   57  A    between atoms: _141  and  _142
REMARK   58  A    between atoms: _141  and  _144
REMARK   59  A    between atoms: _144  and  _145
REMARK   60  A    between atoms: _151  and  _153
REMARK   61  A    between atoms: _153  and  _154
REMARK   62  A    between atoms: _153  and  _156
REMARK   63  A    between atoms: _156  and  _157
REMARK   64  A    between atoms: _162  and  _164
REMARK   65  A    between atoms: _164  and  _165
REMARK   66  A    between atoms: _164  and  _167
REMARK   67  A    between atoms: _167  and  _168
REMARK   68  A    between atoms: _171  and  _173
REMARK   69  A    between atoms: _173  and  _174
REMARK   70  A    between atoms: _173  and  _176
REMARK   71  A    between atoms: _176  and  _177
REMARK   72  A    between atoms: _179  and  _181
REMARK   73  A    between atoms: _181  and  _182
REMARK   74  A    between atoms: _181  and  _184
REMARK   75  A    between atoms: _184  and  _185
REMARK   76  A    between atoms: _190  and  _191
REMARK   77  A    between atoms: _193  and  _195
REMARK   78  A    between atoms: _195  and  _196
REMARK   79  A    between atoms: _195  and  _198
REMARK   80  A    between atoms: _198  and  _199
REMARK   81  A    between atoms: _209  and  _211
REMARK   82  A    between atoms: _211  and  _212
REMARK   83  A    between atoms: _211  and  _214
REMARK   84  A    between atoms: _214  and  _215
REMARK   85  A    between atoms: _217  and  _219
REMARK   86  A    between atoms: _219  and  _220
REMARK   87  A    between atoms: _219  and  _222
REMARK   88  A    between atoms: _222  and  _223
REMARK   89  A    between atoms: _233  and  _235
REMARK   90  A    between atoms: _235  and  _236
REMARK   91  A    between atoms: _235  and  _238
REMARK   92  A    between atoms: _238  and  _239
REMARK   93  A    between atoms: _244  and  _245
REMARK   94  A    between atoms: _247  and  _249
REMARK   95  A    between atoms: _249  and  _250
REMARK   96  A    between atoms: _249  and  _252
REMARK   97  A    between atoms: _252  and  _253
REMARK   98  A    between atoms: _256  and  _258
REMARK   99  A    between atoms: _258  and  _259
REMARK  100  A    between atoms: _261  and  _263
REMARK  101  A    between atoms: _263  and  _264
REMARK  102  A    between atoms: _263  and  _266
REMARK  103  A    between atoms: _266  and  _267
REMARK  104  A    between atoms: _272  and  _273
REMARK  105  A    between atoms: _275  and  _277
REMARK  106  A    between atoms: _277  and  _278
REMARK  107  A    between atoms: _277  and  _280
REMARK  108  A    between atoms: _280  and  _281
REMARK  109  A    between atoms: _286  and  _287
REMARK  110  A    between atoms: _289  and  _291
REMARK  111  A    between atoms: _291  and  _292
REMARK  112  A    between atoms: _291  and  _294
REMARK  113  A    between atoms: _294  and  _295
REMARK  114  A    between atoms: _298  and  _300
REMARK  115  A    between atoms: _300  and  _301
REMARK  116  A    between atoms: _300  and  _303
REMARK  117  A    between atoms: _303  and  _304
REMARK  118  A    between atoms: _307  and  _309
REMARK  119  A    between atoms: _309  and  _310
REMARK  120  A    between atoms: _309  and  _312
REMARK  121  A    between atoms: _312  and  _313
REMARK  122  A    between atoms: _313  and  _314
REMARK  123  A    between atoms: _319  and  _321
REMARK  124  A    between atoms: _321  and  _322
REMARK  125  A    between atoms: _324  and  _326
REMARK  126  A    between atoms: _326  and  _327
REMARK  127  A    between atoms: _329  and  _331
REMARK  128  A    between atoms: _331  and  _332
REMARK  129  A    between atoms: _331  and  _334
REMARK  130  A    between atoms: _334  and  _335
REMARK  131  A    between atoms: _335  and  _336
REMARK  132  A    between atoms: _338  and  _340
REMARK  133  A    between atoms: _340  and  _341
REMARK  134  A    between atoms: _340  and  _343
REMARK  135  A    between atoms: _343  and  _344
REMARK  136  A    between atoms: _346  and  _348
REMARK  137  A    between atoms: _348  and  _349
REMARK  138  A    between atoms: _348  and  _351
REMARK  139  A    between atoms: _351  and  _352
REMARK  140  A    between atoms: _355  and  _357
REMARK  141  A    between atoms: _357  and  _358
REMARK  142  A    between atoms: _357  and  _360
REMARK  143  A    between atoms: _360  and  _361
REMARK  144  A    between atoms: _371  and  _373
REMARK  145  A    between atoms: _373  and  _374
REMARK  146  A    between atoms: _377  and  _379
REMARK  147  A    between atoms: _379  and  _380
REMARK  148  A    between atoms: _379  and  _382
REMARK  149  A    between atoms: _382  and  _383
REMARK  150  A    between atoms: _386  and  _388
REMARK  151  A    between atoms: _388  and  _389
REMARK  152  A    between atoms: _388  and  _391
REMARK  153  A    between atoms: _391  and  _392
REMARK  154  A    between atoms: _392  and  _393
REMARK  155  A    between atoms: _393  and  _394
REMARK                            x       y       z     vdW  Elec       q    Type
REMARK                         _______ _______ _______ _____ _____    ______ ____
ROOT
ATOM      1  C   PHE A   2     -27.070 -25.209 -63.511  0.00  0.00    +0.241 C 
ATOM      2  N   ASN A   3     -28.012 -26.119 -63.714  0.00  0.00    -0.297 N 
ATOM      3  H   ASN A   3     -28.383 -26.655 -62.904  0.00  0.00    +0.150 HD
ATOM      4  O   PHE A   2     -26.688 -24.442 -64.388  0.00  0.00    -0.273 OA
ENDROOT
BRANCH   1   5
ATOM      5  CA  PHE A   2     -26.451 -25.155 -62.124  0.00  0.00    +0.153 C 
BRANCH   5   7
ATOM      6  C   ALA A   1     -24.093 -25.129 -62.729  0.00  0.00    +0.238 C 
ATOM      7  N   PHE A   2     -25.138 -24.496 -62.204  0.00  0.00    -0.297 N 
ATOM      8  H   PHE A   2     -25.026 -23.526 -61.847  0.00  0.00    +0.150 HD
ATOM      9  O   ALA A   1     -24.100 -26.330 -62.995  0.00  0.00    -0.274 OA
BRANCH   6  10
ATOM     10  CA  ALA A   1     -22.858 -24.299 -62.997  0.00  0.00    +0.145 C 
ATOM     11  CB  ALA A   1     -22.998 -23.564 -64.340  0.00  0.00    +0.028 C 
BRANCH  10  12
ATOM     12  N   ALA A   1     -21.707 -25.179 -63.027  0.00  0.00    -0.238 NA
ATOM     13  H   ALA A   1     -21.843 -26.173 -63.301  0.00  0.00    +0.142 HD
ENDBRANCH  10  12
ENDBRANCH   6  10
ENDBRANCH   5   7
BRANCH   5  14
ATOM     14  CB  PHE A   2     -27.363 -24.440 -61.118  0.00  0.00    +0.055 C 
BRANCH  14  15
ATOM     15  CG  PHE A   2     -26.825 -24.456 -59.720  0.00  0.00    -0.020 A 
ATOM     16  CD2 PHE A   2     -26.642 -25.670 -59.052  0.00  0.00    -0.004 A 
ATOM     17  CE2 PHE A   2     -26.125 -25.713 -57.761  0.00  0.00    -0.000 A 
ATOM     18  CZ  PHE A   2     -25.779 -24.523 -57.116  0.00  0.00    -0.000 A 
ATOM     19  CE1 PHE A   2     -25.981 -23.295 -57.761  0.00  0.00    -0.000 A 
ATOM     20  CD1 PHE A   2     -26.486 -23.266 -59.067  0.00  0.00    -0.004 A 
ENDBRANCH  14  15
ENDBRANCH   5  14
ENDBRANCH   1   5
BRANCH   2  21
ATOM     21  CA  ASN A   3     -28.546 -26.390 -65.061  0.00  0.00    +0.158 C 
BRANCH  21  22
ATOM     22  C   ASN A   3     -29.484 -25.339 -65.632  0.00  0.00    +0.241 C 
ATOM     23  N   ASP A   4     -30.136 -24.573 -64.758  0.00  0.00    -0.298 N 
ATOM     24  H   ASP A   4     -29.853 -24.610 -63.758  0.00  0.00    +0.150 HD
ATOM     25  O   ASN A   3     -29.632 -25.254 -66.852  0.00  0.00    -0.273 OA
BRANCH  23  26
ATOM     26  CA  ASP A   4     -31.239 -23.676 -65.144  0.00  0.00    +0.148 C 
BRANCH  26  27
ATOM     27  C   ASP A   4     -31.091 -22.983 -66.492  0.00  0.00    +0.227 C 
ATOM     28  O   ASP A   4     -31.963 -23.102 -67.351  0.00  0.00    -0.286 OA
ENDBRANCH  26  27
BRANCH  26  29
ATOM     29  CB  ASP A   4     -31.457 -22.605 -64.075  0.00  0.00    +0.142 C 
BRANCH  29  30
ATOM     30  CG  ASP A   4     -31.716 -23.193 -62.713  0.00  0.00    +0.367 C 
ATOM     31  OD2 ASP A   4     -32.614 -22.669 -62.010  0.00  0.00    -0.246 OA
ATOM     32  OD1 ASP A   4     -31.011 -24.166 -62.351  0.00  0.00    -0.246 OA
ENDBRANCH  29  30
ENDBRANCH  26  29
ENDBRANCH  23  26
ENDBRANCH  21  22
BRANCH  21  33
ATOM     33  CB  ASN A   3     -29.249 -27.766 -65.118  0.00  0.00    +0.114 C 
BRANCH  33  34
ATOM     34  CG  ASN A   3     -30.456 -27.869 -64.152  0.00  0.00    +0.222 C 
ATOM     35  OD1 ASN A   3     -30.294 -28.108 -62.961  0.00  0.00    -0.275 OA
ATOM     36  ND2 ASN A   3     -31.660 -27.722 -64.689  0.00  0.00    -0.329 N 
ATOM     37 HD21 ASN A   3     -32.509 -27.809 -64.094  0.00  0.00    +0.145 HD
ATOM     38 HD22 ASN A   3     -31.755 -27.520 -65.705  0.00  0.00    +0.145 HD
ENDBRANCH  33  34
ENDBRANCH  21  33
ENDBRANCH   2  21
TORSDOF 14
REMARK  Name = ../refined-set-2016/4azc/4azc_pocket.pdb
REMARK  155 active torsions:
REMARK  status: ('A' for Active; 'I' for Inactive)
REMARK    1  A    between atoms: _1  and  _3
REMARK    2  A    between atoms: _3  and  _4
REMARK    3  A    between atoms: _3  and  _6
REMARK    4  A    between atoms: _6  and  _7
REMARK    5  A    between atoms: _10  and  _12
REMARK    6  A    between atoms: _12  and  _13
REMARK    7  A    between atoms: _12  and  _15
REMARK    8  A    between atoms: _15  and  _16
REMARK    9  A    between atoms: _16  and  _17
REMARK   10  A    between atoms: _17  and  _18
REMARK   11  A    between atoms: _27  and  _29
REMARK   12  A    between atoms: _29  and  _30
REMARK   13  A    between atoms: _29  and  _32
REMARK   14  A    between atoms: _32  and  _33
REMARK   15  A    between atoms: _36  and  _38
REMARK   16  A    between atoms: _38  and  _39
REMARK   17  A    between atoms: _38  and  _41
REMARK   18  A    between atoms: _41  and  _42
REMARK   19  A    between atoms: _47  and  _49
REMARK   20  A    between atoms: _49  and  _50
REMARK   21  A    between atoms: _49  and  _52
REMARK   22  A    between atoms: _52  and  _53
REMARK   23  A    between atoms: _56  and  _58
REMARK   24  A    between atoms: _58  and  _59
REMARK   25  A    between atoms: _58  and  _61
REMARK   26  A    between atoms: _61  and  _62
REMARK   27  A    between atoms: _67  and  _69
REMARK   28  A    between atoms: _69  and  _70
REMARK   29  A    between atoms: _69  and  _72
REMARK   30  A    between atoms: _72  and  _73
REMARK   31  A    between atoms: _78  and  _80
REMARK   32  A    between atoms: _80  and  _81
REMARK   33  A    between atoms: _80  and  _83
REMARK   34  A    between atoms: _83  and  _84
REMARK   35  A    between atoms: _89  and  _91
REMARK   36  A    between atoms: _91  and  _92
REMARK   37  A    between atoms: _94  and  _96
REMARK   38  A    between atoms: _96  and  _97
REMARK   39  A    between atoms: _96  and  _99
REMARK   40  A    between atoms: _99  and  _100
REMARK   41  A    between atoms: _103  and  _105
REMARK   42  A    between atoms: _105  and  _106
REMARK   43  A    between atoms: _105  and  _108
REMARK   44  A    between atoms: _108  and  _109
REMARK   45  A    between atoms: _112  and  _114
REMARK   46  A    between atoms: _114  and  _115
REMARK   47  A    between atoms: _114  and  _117
REMARK   48  A    between atoms: _117  and  _118
REMARK   49  A    between atoms: _118  and  _119
REMARK   50  A    between atoms: _122  and  _124
REMARK   51  A    between atoms: _124  and  _125
REMARK   52  A    between atoms: _124  and  _127
REMARK   53  A    between atoms: _127  and  _128
REMARK   54  A    between atoms: _133  and  _135
REMARK   55  A    between atoms: _135  and  _136
REMARK   56  A    between atoms: _139  and  _141
REMARK   57  A    between atoms: _141  and  _142
REMARK   58  A    between atoms: _141  and  _144
REMARK   59  A    between atoms: _144  and  _145
REMARK   60  A    between atoms: _151  and  _153
REMARK   61  A    between atoms: _153  and  _154
REMARK   62  A    between atoms: _153  and  _156
REMARK   63  A    between atoms: _156  and  _157
REMARK   64  A    between atoms: _162  and  _164
REMARK   65  A    between atoms: _164  and  _165
REMARK   66  A    between atoms: _164  and  _167
REMARK   67  A    between atoms: _167  and  _168
REMARK   68  A    between atoms: _171  and  _173
REMARK   69  A    between atoms: _173  and  _174
REMARK   70  A    between atoms: _173  and  _176
REMARK   71  A    between atoms: _176  and  _177
REMARK   72  A    between atoms: _179  and  _181
REMARK   73  A    between atoms: _181  and  _182
REMARK   74  A    between atoms: _181  and  _184
REMARK   75  A    between atoms: _184  and  _185
REMARK   76  A    between atoms: _190  and  _191
REMARK   77  A    between atoms: _193  and  _195
REMARK   78  A    between atoms: _195  and  _196
REMARK   79  A    between atoms: _195  and  _198
REMARK   80  A    between atoms: _198  and  _199
REMARK   81  A    between atoms: _209  and  _211
REMARK   82  A    between atoms: _211  and  _212
REMARK   83  A    between atoms: _211  and  _214
REMARK   84  A    between atoms: _214  and  _215
REMARK   85  A    between atoms: _217  and  _219
REMARK   86  A    between atoms: _219  and  _220
REMARK   87  A    between atoms: _219  and  _222
REMARK   88  A    between atoms: _222  and  _223
REMARK   89  A    between atoms: _233  and  _235
REMARK   90  A    between atoms: _235  and  _236
REMARK   91  A    between atoms: _235  and  _238
REMARK   92  A    between atoms: _238  and  _239
REMARK   93  A    between atoms: _244  and  _245
REMARK   94  A    between atoms: _247  and  _249
REMARK   95  A    between atoms: _249  and  _250
REMARK   96  A    between atoms: _249  and  _252
REMARK   97  A    between atoms: _252  and  _253
REMARK   98  A    between atoms: _256  and  _258
REMARK   99  A    between atoms: _258  and  _259
REMARK  100  A    between atoms: _261  and  _263
REMARK  101  A    between atoms: _263  and  _264
REMARK  102  A    between atoms: _263  and  _266
REMARK  103  A    between atoms: _266  and  _267
REMARK  104  A    between atoms: _272  and  _273
REMARK  105  A    between atoms: _275  and  _277
REMARK  106  A    between atoms: _277  and  _278
REMARK  107  A    between atoms: _277  and  _280
REMARK  108  A    between atoms: _280  and  _281
REMARK  109  A    between atoms: _286  and  _287
REMARK  110  A    between atoms: _289  and  _291
REMARK  111  A    between atoms: _291  and  _292
REMARK  112  A    between atoms: _291  and  _294
REMARK  113  A    between atoms: _294  and  _295
REMARK  114  A    between atoms: _298  and  _300
REMARK  115  A    between atoms: _300  and  _301
REMARK  116  A    between atoms: _300  and  _303
REMARK  117  A    between atoms: _303  and  _304
REMARK  118  A    between atoms: _307  and  _309
REMARK  119  A    between atoms: _309  and  _310
REMARK  120  A    between atoms: _309  and  _312
REMARK  121  A    between atoms: _312  and  _313
REMARK  122  A    between atoms: _313  and  _314
REMARK  123  A    between atoms: _319  and  _321
REMARK  124  A    between atoms: _321  and  _322
REMARK  125  A    between atoms: _324  and  _326
REMARK  126  A    between atoms: _326  and  _327
REMARK  127  A    between atoms: _329  and  _331
REMARK  128  A    between atoms: _331  and  _332
REMARK  129  A    between atoms: _331  and  _334
REMARK  130  A    between atoms: _334  and  _335
REMARK  131  A    between atoms: _335  and  _336
REMARK  132  A    between atoms: _338  and  _340
REMARK  133  A    between atoms: _340  and  _341
REMARK  134  A    between atoms: _340  and  _343
REMARK  135  A    between atoms: _343  and  _344
REMARK  136  A    between atoms: _346  and  _348
REMARK  137  A    between atoms: _348  and  _349
REMARK  138  A    between atoms: _348  and  _351
REMARK  139  A    between atoms: _351  and  _352
REMARK  140  A    between atoms: _355  and  _357
REMARK  141  A    between atoms: _357  and  _358
REMARK  142  A    between atoms: _357  and  _360
REMARK  143  A    between atoms: _360  and  _361
REMARK  144  A    between atoms: _371  and  _373
REMARK  145  A    between atoms: _373  and  _374
REMARK  146  A    between atoms: _377  and  _379
REMARK  147  A    between atoms: _379  and  _380
REMARK  148  A    between atoms: _379  and  _382
REMARK  149  A    between atoms: _382  and  _383
REMARK  150  A    between atoms: _386  and  _388
REMARK  151  A    between atoms: _388  and  _389
REMARK  152  A    between atoms: _388  and  _391
REMARK  153  A    between atoms: _391  and  _392
REMARK  154  A    between atoms: _392  and  _393
REMARK  155  A    between atoms: _393  and  _394
REMARK                            x       y       z     vdW  Elec       q    Type
REMARK                         _______ _______ _______ _____ _____    ______ ____
ROOT
ATOM      1  C   TYR A   2     -29.432 -31.060 -61.096  0.00  0.00    +0.241 C 
ATOM      2  O   TYR A   2     -29.278 -32.074 -60.404  0.00  0.00    -0.273 OA
ATOM      3  N   TRP A   3     -30.430 -30.200 -60.899  0.00  0.00    -0.297 N 
ATOM      4  H   TRP A   3     -30.628 -29.457 -61.599  0.00  0.00    +0.150 HD
ENDROOT
BRANCH   3   5
ATOM      5  CA  TRP A   3     -31.251 -30.312 -59.680  0.00  0.00    +0.153 C 
BRANCH   5   6
ATOM      6  C   TRP A   3     -32.754 -30.408 -59.889  0.00  0.00    +0.241 C 
ATOM      7  O   TRP A   3     -33.469 -30.905 -59.015  0.00  0.00    -0.273 OA
ATOM      8  N   SER A   4     -33.239 -29.924 -61.031  0.00  0.00    -0.296 N 
ATOM      9  H   SER A   4     -32.576 -29.563 -61.747  0.00  0.00    +0.150 HD
BRANCH   8  10
ATOM     10  CA  SER A   4     -34.675 -29.884 -61.310  0.00  0.00    +0.166 C 
BRANCH  10  11
ATOM     11  C   SER A   4     -34.891 -29.529 -62.764  0.00  0.00    +0.229 C 
ATOM     12  O   SER A   4     -34.123 -28.755 -63.336  0.00  0.00    -0.286 OA
ENDBRANCH  10  11
BRANCH  10  13
ATOM     13  CB  SER A   4     -35.391 -28.818 -60.445  0.00  0.00    +0.165 C 
BRANCH  13  14
ATOM     14  OG  SER A   4     -36.757 -28.655 -60.851  0.00  0.00    -0.380 OA
ATOM     15  H   SER A   4     -37.189 -27.969 -60.283  0.00  0.00    +0.211 HD
ENDBRANCH  13  14
ENDBRANCH  10  13
ENDBRANCH   8  10
ENDBRANCH   5   6
BRANCH   5  16
ATOM     16  CB  TRP A   3     -30.909 -29.179 -58.697  0.00  0.00    +0.057 C 
BRANCH  16  17
ATOM     17  CG  TRP A   3     -31.399 -27.834 -59.131  0.00  0.00    -0.002 A 
ATOM     18  CD2 TRP A   3     -32.605 -27.179 -58.707  0.00  0.00    +0.013 A 
ATOM     19  CE3 TRP A   3     -33.650 -27.530 -57.845  0.00  0.00    +0.001 A 
ATOM     20  CZ3 TRP A   3     -34.715 -26.626 -57.677  0.00  0.00    +0.000 A 
ATOM     21  CH2 TRP A   3     -34.739 -25.398 -58.358  0.00  0.00    +0.001 A 
ATOM     22  CZ2 TRP A   3     -33.727 -25.032 -59.205  0.00  0.00    +0.017 A 
ATOM     23  CE2 TRP A   3     -32.661 -25.931 -59.376  0.00  0.00    +0.056 A 
ATOM     24  NE1 TRP A   3     -31.529 -25.826 -60.145  0.00  0.00    -0.352 N 
ATOM     25  HE1 TRP A   3     -31.276 -25.012 -60.741  0.00  0.00    +0.166 HD
ATOM     26  CD1 TRP A   3     -30.781 -26.976 -59.999  0.00  0.00    +0.068 A 
ENDBRANCH  16  17
ENDBRANCH   5  16
ENDBRANCH   3   5
BRANCH   1  27
ATOM     27  CA  TYR A   2     -28.494 -30.776 -62.264  0.00  0.00    +0.153 C 
BRANCH  27  30
ATOM     28  C   SER A   1     -26.581 -29.417 -61.528  0.00  0.00    +0.241 C 
ATOM     29  O   SER A   1     -27.230 -28.359 -61.547  0.00  0.00    -0.274 OA
ATOM     30  N   TYR A   2     -27.108 -30.615 -61.809  0.00  0.00    -0.297 N 
ATOM     31  H   TYR A   2     -26.514 -31.462 -61.701  0.00  0.00    +0.150 HD
BRANCH  28  32
ATOM     32  CA  SER A   1     -25.077 -29.404 -61.225  0.00  0.00    +0.174 C 
BRANCH  32  33
ATOM     33  N   SER A   1     -24.377 -29.022 -62.458  0.00  0.00    -0.236 NA
ATOM     34  H   SER A   1     -24.048 -28.042 -62.571  0.00  0.00    +0.142 HD
ENDBRANCH  32  33
BRANCH  32  35
ATOM     35  CB  SER A   1     -24.746 -28.421 -60.107  0.00  0.00    +0.163 C 
BRANCH  35  36
ATOM     36  OG  SER A   1     -25.403 -28.748 -58.907  0.00  0.00    -0.380 OA
ATOM     37  H   SER A   1     -25.126 -29.653 -58.616  0.00  0.00    +0.211 HD
ENDBRANCH  35  36
ENDBRANCH  32  35
ENDBRANCH  28  32
ENDBRANCH  27  30
BRANCH  27  38
ATOM     38  CB  TYR A   2     -28.653 -31.892 -63.336  0.00  0.00    +0.055 C 
BRANCH  38  39
ATOM     39  CG  TYR A   2     -29.958 -31.694 -64.091  0.00  0.00    -0.020 A 
ATOM     40  CD2 TYR A   2     -31.194 -32.049 -63.519  0.00  0.00    -0.001 A 
ATOM     41  CE2 TYR A   2     -32.411 -31.816 -64.205  0.00  0.00    +0.036 A 
ATOM     42  CZ  TYR A   2     -32.379 -31.215 -65.462  0.00  0.00    +0.134 A 
ATOM     43  CE1 TYR A   2     -31.173 -30.877 -66.040  0.00  0.00    +0.036 A 
ATOM     44  CD1 TYR A   2     -29.965 -31.105 -65.346  0.00  0.00    -0.001 A 
BRANCH  42  45
ATOM     45  OH  TYR A   2     -33.541 -30.964 -66.164  0.00  0.00    -0.506 OA
ATOM     46  HH  TYR A   2     -33.612 -29.994 -66.347  0.00  0.00    +0.292 HD
ENDBRANCH  42  45
ENDBRANCH  38  39
ENDBRANCH  27  38
ENDBRANCH   1  27
TORSDOF 17
REMARK  Name = ../refined-set-2016/4azc/4azc_pocket.pdb
REMARK  155 active torsions:
REMARK  status: ('A' for Active; 'I' for Inactive)
REMARK    1  A    between atoms: _1  and  _3
REMARK    2  A    between atoms: _3  and  _4
REMARK    3  A    between atoms: _3  and  _6
REMARK    4  A    between atoms: _6  and  _7
REMARK    5  A    between atoms: _10  and  _12
REMARK    6  A    between atoms: _12  and  _13
REMARK    7  A    between atoms: _12  and  _15
REMARK    8  A    between atoms: _15  and  _16
REMARK    9  A    between atoms: _16  and  _17
REMARK   10  A    between atoms: _17  and  _18
REMARK   11  A    between atoms: _27  and  _29
REMARK   12  A    between atoms: _29  and  _30
REMARK   13  A    between atoms: _29  and  _32
REMARK   14  A    between atoms: _32  and  _33
REMARK   15  A    between atoms: _36  and  _38
REMARK   16  A    between atoms: _38  and  _39
REMARK   17  A    between atoms: _38  and  _41
REMARK   18  A    between atoms: _41  and  _42
REMARK   19  A    between atoms: _47  and  _49
REMARK   20  A    between atoms: _49  and  _50
REMARK   21  A    between atoms: _49  and  _52
REMARK   22  A    between atoms: _52  and  _53
REMARK   23  A    between atoms: _56  and  _58
REMARK   24  A    between atoms: _58  and  _59
REMARK   25  A    between atoms: _58  and  _61
REMARK   26  A    between atoms: _61  and  _62
REMARK   27  A    between atoms: _67  and  _69
REMARK   28  A    between atoms: _69  and  _70
REMARK   29  A    between atoms: _69  and  _72
REMARK   30  A    between atoms: _72  and  _73
REMARK   31  A    between atoms: _78  and  _80
REMARK   32  A    between atoms: _80  and  _81
REMARK   33  A    between atoms: _80  and  _83
REMARK   34  A    between atoms: _83  and  _84
REMARK   35  A    between atoms: _89  and  _91
REMARK   36  A    between atoms: _91  and  _92
REMARK   37  A    between atoms: _94  and  _96
REMARK   38  A    between atoms: _96  and  _97
REMARK   39  A    between atoms: _96  and  _99
REMARK   40  A    between atoms: _99  and  _100
REMARK   41  A    between atoms: _103  and  _105
REMARK   42  A    between atoms: _105  and  _106
REMARK   43  A    between atoms: _105  and  _108
REMARK   44  A    between atoms: _108  and  _109
REMARK   45  A    between atoms: _112  and  _114
REMARK   46  A    between atoms: _114  and  _115
REMARK   47  A    between atoms: _114  and  _117
REMARK   48  A    between atoms: _117  and  _118
REMARK   49  A    between atoms: _118  and  _119
REMARK   50  A    between atoms: _122  and  _124
REMARK   51  A    between atoms: _124  and  _125
REMARK   52  A    between atoms: _124  and  _127
REMARK   53  A    between atoms: _127  and  _128
REMARK   54  A    between atoms: _133  and  _135
REMARK   55  A    between atoms: _135  and  _136
REMARK   56  A    between atoms: _139  and  _141
REMARK   57  A    between atoms: _141  and  _142
REMARK   58  A    between atoms: _141  and  _144
REMARK   59  A    between atoms: _144  and  _145
REMARK   60  A    between atoms: _151  and  _153
REMARK   61  A    between atoms: _153  and  _154
REMARK   62  A    between atoms: _153  and  _156
REMARK   63  A    between atoms: _156  and  _157
REMARK   64  A    between atoms: _162  and  _164
REMARK   65  A    between atoms: _164  and  _165
REMARK   66  A    between atoms: _164  and  _167
REMARK   67  A    between atoms: _167  and  _168
REMARK   68  A    between atoms: _171  and  _173
REMARK   69  A    between atoms: _173  and  _174
REMARK   70  A    between atoms: _173  and  _176
REMARK   71  A    between atoms: _176  and  _177
REMARK   72  A    between atoms: _179  and  _181
REMARK   73  A    between atoms: _181  and  _182
REMARK   74  A    between atoms: _181  and  _184
REMARK   75  A    between atoms: _184  and  _185
REMARK   76  A    between atoms: _190  and  _191
REMARK   77  A    between atoms: _193  and  _195
REMARK   78  A    between atoms: _195  and  _196
REMARK   79  A    between atoms: _195  and  _198
REMARK   80  A    between atoms: _198  and  _199
REMARK   81  A    between atoms: _209  and  _211
REMARK   82  A    between atoms: _211  and  _212
REMARK   83  A    between atoms: _211  and  _214
REMARK   84  A    between atoms: _214  and  _215
REMARK   85  A    between atoms: _217  and  _219
REMARK   86  A    between atoms: _219  and  _220
REMARK   87  A    between atoms: _219  and  _222
REMARK   88  A    between atoms: _222  and  _223
REMARK   89  A    between atoms: _233  and  _235
REMARK   90  A    between atoms: _235  and  _236
REMARK   91  A    between atoms: _235  and  _238
REMARK   92  A    between atoms: _238  and  _239
REMARK   93  A    between atoms: _244  and  _245
REMARK   94  A    between atoms: _247  and  _249
REMARK   95  A    between atoms: _249  and  _250
REMARK   96  A    between atoms: _249  and  _252
REMARK   97  A    between atoms: _252  and  _253
REMARK   98  A    between atoms: _256  and  _258
REMARK   99  A    between atoms: _258  and  _259
REMARK  100  A    between atoms: _261  and  _263
REMARK  101  A    between atoms: _263  and  _264
REMARK  102  A    between atoms: _263  and  _266
REMARK  103  A    between atoms: _266  and  _267
REMARK  104  A    between atoms: _272  and  _273
REMARK  105  A    between atoms: _275  and  _277
REMARK  106  A    between atoms: _277  and  _278
REMARK  107  A    between atoms: _277  and  _280
REMARK  108  A    between atoms: _280  and  _281
REMARK  109  A    between atoms: _286  and  _287
REMARK  110  A    between atoms: _289  and  _291
REMARK  111  A    between atoms: _291  and  _292
REMARK  112  A    between atoms: _291  and  _294
REMARK  113  A    between atoms: _294  and  _295
REMARK  114  A    between atoms: _298  and  _300
REMARK  115  A    between atoms: _300  and  _301
REMARK  116  A    between atoms: _300  and  _303
REMARK  117  A    between atoms: _303  and  _304
REMARK  118  A    between atoms: _307  and  _309
REMARK  119  A    between atoms: _309  and  _310
REMARK  120  A    between atoms: _309  and  _312
REMARK  121  A    between atoms: _312  and  _313
REMARK  122  A    between atoms: _313  and  _314
REMARK  123  A    between atoms: _319  and  _321
REMARK  124  A    between atoms: _321  and  _322
REMARK  125  A    between atoms: _324  and  _326
REMARK  126  A    between atoms: _326  and  _327
REMARK  127  A    between atoms: _329  and  _331
REMARK  128  A    between atoms: _331  and  _332
REMARK  129  A    between atoms: _331  and  _334
REMARK  130  A    between atoms: _334  and  _335
REMARK  131  A    between atoms: _335  and  _336
REMARK  132  A    between atoms: _338  and  _340
REMARK  133  A    between atoms: _340  and  _341
REMARK  134  A    between atoms: _340  and  _343
REMARK  135  A    between atoms: _343  and  _344
REMARK  136  A    between atoms: _346  and  _348
REMARK  137  A    between atoms: _348  and  _349
REMARK  138  A    between atoms: _348  and  _351
REMARK  139  A    between atoms: _351  and  _352
REMARK  140  A    between atoms: _355  and  _357
REMARK  141  A    between atoms: _357  and  _358
REMARK  142  A    between atoms: _357  and  _360
REMARK  143  A    between atoms: _360  and  _361
REMARK  144  A    between atoms: _371  and  _373
REMARK  145  A    between atoms: _373  and  _374
REMARK  146  A    between atoms: _377  and  _379
REMARK  147  A    between atoms: _379  and  _380
REMARK  148  A    between atoms: _379  and  _382
REMARK  149  A    between atoms: _382  and  _383
REMARK  150  A    between atoms: _386  and  _388
REMARK  151  A    between atoms: _388  and  _389
REMARK  152  A    between atoms: _388  and  _391
REMARK  153  A    between atoms: _391  and  _392
REMARK  154  A    between atoms: _392  and  _393
REMARK  155  A    between atoms: _393  and  _394
REMARK                            x       y       z     vdW  Elec       q    Type
REMARK                         _______ _______ _______ _____ _____    ______ ____
ROOT
ATOM      1  CG  TRP A   1     -41.671 -24.588 -61.295  0.00  0.00    -0.002 A 
ATOM      2  CD2 TRP A   1     -40.357 -24.379 -60.736  0.00  0.00    +0.013 A 
ATOM      3  CE3 TRP A   1     -39.357 -25.237 -60.253  0.00  0.00    +0.001 A 
ATOM      4  CZ3 TRP A   1     -38.165 -24.681 -59.760  0.00  0.00    +0.000 A 
ATOM      5  CH2 TRP A   1     -37.977 -23.276 -59.729  0.00  0.00    +0.001 A 
ATOM      6  CZ2 TRP A   1     -38.948 -22.414 -60.186  0.00  0.00    +0.017 A 
ATOM      7  CE2 TRP A   1     -40.140 -22.981 -60.687  0.00  0.00    +0.056 A 
ATOM      8  NE1 TRP A   1     -41.262 -22.374 -61.199  0.00  0.00    -0.352 N 
ATOM      9  HE1 TRP A   1     -41.399 -21.348 -61.302  0.00  0.00    +0.166 HD
ATOM     10  CD1 TRP A   1     -42.178 -23.342 -61.555  0.00  0.00    +0.068 A 
ENDROOT
BRANCH   1  11
ATOM     11  CB  TRP A   1     -42.346 -25.904 -61.547  0.00  0.00    +0.053 C 
BRANCH  11  12
ATOM     12  CA  TRP A   1     -42.134 -26.427 -62.972  0.00  0.00    +0.137 C 
BRANCH  12  13
ATOM     13  N   TRP A   1     -40.734 -26.288 -63.357  0.00  0.00    -0.239 NA
ATOM     14  H   TRP A   1     -40.450 -25.485 -63.954  0.00  0.00    +0.142 HD
ENDBRANCH  12  13
BRANCH  12  15
ATOM     15  C   TRP A   1     -42.955 -25.653 -63.988  0.00  0.00    +0.224 C 
ATOM     16  O   TRP A   1     -42.395 -25.121 -64.962  0.00  0.00    -0.287 OA
ENDBRANCH  12  15
ENDBRANCH  11  12
ENDBRANCH   1  11
TORSDOF 4
REMARK  Name = ../refined-set-2016/4azc/4azc_pocket.pdb
REMARK  155 active torsions:
REMARK  status: ('A' for Active; 'I' for Inactive)
REMARK    1  A    between atoms: _1  and  _3
REMARK    2  A    between atoms: _3  and  _4
REMARK    3  A    between atoms: _3  and  _6
REMARK    4  A    between atoms: _6  and  _7
REMARK    5  A    between atoms: _10  and  _12
REMARK    6  A    between atoms: _12  and  _13
REMARK    7  A    between atoms: _12  and  _15
REMARK    8  A    between atoms: _15  and  _16
REMARK    9  A    between atoms: _16  and  _17
REMARK   10  A    between atoms: _17  and  _18
REMARK   11  A    between atoms: _27  and  _29
REMARK   12  A    between atoms: _29  and  _30
REMARK   13  A    between atoms: _29  and  _32
REMARK   14  A    between atoms: _32  and  _33
REMARK   15  A    between atoms: _36  and  _38
REMARK   16  A    between atoms: _38  and  _39
REMARK   17  A    between atoms: _38  and  _41
REMARK   18  A    between atoms: _41  and  _42
REMARK   19  A    between atoms: _47  and  _49
REMARK   20  A    between atoms: _49  and  _50
REMARK   21  A    between atoms: _49  and  _52
REMARK   22  A    between atoms: _52  and  _53
REMARK   23  A    between atoms: _56  and  _58
REMARK   24  A    between atoms: _58  and  _59
REMARK   25  A    between atoms: _58  and  _61
REMARK   26  A    between atoms: _61  and  _62
REMARK   27  A    between atoms: _67  and  _69
REMARK   28  A    between atoms: _69  and  _70
REMARK   29  A    between atoms: _69  and  _72
REMARK   30  A    between atoms: _72  and  _73
REMARK   31  A    between atoms: _78  and  _80
REMARK   32  A    between atoms: _80  and  _81
REMARK   33  A    between atoms: _80  and  _83
REMARK   34  A    between atoms: _83  and  _84
REMARK   35  A    between atoms: _89  and  _91
REMARK   36  A    between atoms: _91  and  _92
REMARK   37  A    between atoms: _94  and  _96
REMARK   38  A    between atoms: _96  and  _97
REMARK   39  A    between atoms: _96  and  _99
REMARK   40  A    between atoms: _99  and  _100
REMARK   41  A    between atoms: _103  and  _105
REMARK   42  A    between atoms: _105  and  _106
REMARK   43  A    between atoms: _105  and  _108
REMARK   44  A    between atoms: _108  and  _109
REMARK   45  A    between atoms: _112  and  _114
REMARK   46  A    between atoms: _114  and  _115
REMARK   47  A    between atoms: _114  and  _117
REMARK   48  A    between atoms: _117  and  _118
REMARK   49  A    between atoms: _118  and  _119
REMARK   50  A    between atoms: _122  and  _124
REMARK   51  A    between atoms: _124  and  _125
REMARK   52  A    between atoms: _124  and  _127
REMARK   53  A    between atoms: _127  and  _128
REMARK   54  A    between atoms: _133  and  _135
REMARK   55  A    between atoms: _135  and  _136
REMARK   56  A    between atoms: _139  and  _141
REMARK   57  A    between atoms: _141  and  _142
REMARK   58  A    between atoms: _141  and  _144
REMARK   59  A    between atoms: _144  and  _145
REMARK   60  A    between atoms: _151  and  _153
REMARK   61  A    between atoms: _153  and  _154
REMARK   62  A    between atoms: _153  and  _156
REMARK   63  A    between atoms: _156  and  _157
REMARK   64  A    between atoms: _162  and  _164
REMARK   65  A    between atoms: _164  and  _165
REMARK   66  A    between atoms: _164  and  _167
REMARK   67  A    between atoms: _167  and  _168
REMARK   68  A    between atoms: _171  and  _173
REMARK   69  A    between atoms: _173  and  _174
REMARK   70  A    between atoms: _173  and  _176
REMARK   71  A    between atoms: _176  and  _177
REMARK   72  A    between atoms: _179  and  _181
REMARK   73  A    between atoms: _181  and  _182
REMARK   74  A    between atoms: _181  and  _184
REMARK   75  A    between atoms: _184  and  _185
REMARK   76  A    between atoms: _190  and  _191
REMARK   77  A    between atoms: _193  and  _195
REMARK   78  A    between atoms: _195  and  _196
REMARK   79  A    between atoms: _195  and  _198
REMARK   80  A    between atoms: _198  and  _199
REMARK   81  A    between atoms: _209  and  _211
REMARK   82  A    between atoms: _211  and  _212
REMARK   83  A    between atoms: _211  and  _214
REMARK   84  A    between atoms: _214  and  _215
REMARK   85  A    between atoms: _217  and  _219
REMARK   86  A    between atoms: _219  and  _220
REMARK   87  A    between atoms: _219  and  _222
REMARK   88  A    between atoms: _222  and  _223
REMARK   89  A    between atoms: _233  and  _235
REMARK   90  A    between atoms: _235  and  _236
REMARK   91  A    between atoms: _235  and  _238
REMARK   92  A    between atoms: _238  and  _239
REMARK   93  A    between atoms: _244  and  _245
REMARK   94  A    between atoms: _247  and  _249
REMARK   95  A    between atoms: _249  and  _250
REMARK   96  A    between atoms: _249  and  _252
REMARK   97  A    between atoms: _252  and  _253
REMARK   98  A    between atoms: _256  and  _258
REMARK   99  A    between atoms: _258  and  _259
REMARK  100  A    between atoms: _261  and  _263
REMARK  101  A    between atoms: _263  and  _264
REMARK  102  A    between atoms: _263  and  _266
REMARK  103  A    between atoms: _266  and  _267
REMARK  104  A    between atoms: _272  and  _273
REMARK  105  A    between atoms: _275  and  _277
REMARK  106  A    between atoms: _277  and  _278
REMARK  107  A    between atoms: _277  and  _280
REMARK  108  A    between atoms: _280  and  _281
REMARK  109  A    between atoms: _286  and  _287
REMARK  110  A    between atoms: _289  and  _291
REMARK  111  A    between atoms: _291  and  _292
REMARK  112  A    between atoms: _291  and  _294
REMARK  113  A    between atoms: _294  and  _295
REMARK  114  A    between atoms: _298  and  _300
REMARK  115  A    between atoms: _300  and  _301
REMARK  116  A    between atoms: _300  and  _303
REMARK  117  A    between atoms: _303  and  _304
REMARK  118  A    between atoms: _307  and  _309
REMARK  119  A    between atoms: _309  and  _310
REMARK  120  A    between atoms: _309  and  _312
REMARK  121  A    between atoms: _312  and  _313
REMARK  122  A    between atoms: _313  and  _314
REMARK  123  A    between atoms: _319  and  _321
REMARK  124  A    between atoms: _321  and  _322
REMARK  125  A    between atoms: _324  and  _326
REMARK  126  A    between atoms: _326  and  _327
REMARK  127  A    between atoms: _329  and  _331
REMARK  128  A    between atoms: _331  and  _332
REMARK  129  A    between atoms: _331  and  _334
REMARK  130  A    between atoms: _334  and  _335
REMARK  131  A    between atoms: _335  and  _336
REMARK  132  A    between atoms: _338  and  _340
REMARK  133  A    between atoms: _340  and  _341
REMARK  134  A    between atoms: _340  and  _343
REMARK  135  A    between atoms: _343  and  _344
REMARK  136  A    between atoms: _346  and  _348
REMARK  137  A    between atoms: _348  and  _349
REMARK  138  A    between atoms: _348  and  _351
REMARK  139  A    between atoms: _351  and  _352
REMARK  140  A    between atoms: _355  and  _357
REMARK  141  A    between atoms: _357  and  _358
REMARK  142  A    between atoms: _357  and  _360
REMARK  143  A    between atoms: _360  and  _361
REMARK  144  A    between atoms: _371  and  _373
REMARK  145  A    between atoms: _373  and  _374
REMARK  146  A    between atoms: _377  and  _379
REMARK  147  A    between atoms: _379  and  _380
REMARK  148  A    between atoms: _379  and  _382
REMARK  149  A    between atoms: _382  and  _383
REMARK  150  A    between atoms: _386  and  _388
REMARK  151  A    between atoms: _388  and  _389
REMARK  152  A    between atoms: _388  and  _391
REMARK  153  A    between atoms: _391  and  _392
REMARK  154  A    between atoms: _392  and  _393
REMARK  155  A    between atoms: _393  and  _394
REMARK                            x       y       z     vdW  Elec       q    Type
REMARK                         _______ _______ _______ _____ _____    ______ ____
ROOT
ATOM      1  CG  TYR A   1     -38.347 -22.013 -64.015  0.00  0.00    -0.020 A 
ATOM      2  CD2 TYR A   1     -37.530 -22.873 -63.296  0.00  0.00    -0.001 A 
ATOM      3  CE2 TYR A   1     -36.230 -22.511 -62.926  0.00  0.00    +0.036 A 
ATOM      4  CZ  TYR A   1     -35.723 -21.264 -63.275  0.00  0.00    +0.134 A 
ATOM      5  CE1 TYR A   1     -36.528 -20.364 -63.973  0.00  0.00    +0.036 A 
ATOM      6  CD1 TYR A   1     -37.843 -20.746 -64.338  0.00  0.00    -0.001 A 
ENDROOT
BRANCH   4   7
ATOM      7  OH  TYR A   1     -34.406 -20.946 -62.912  0.00  0.00    -0.506 OA
ATOM      8  HH  TYR A   1     -33.785 -21.595 -63.327  0.00  0.00    +0.292 HD
ENDBRANCH   4   7
BRANCH   1   9
ATOM      9  CB  TYR A   1     -39.772 -22.426 -64.390  0.00  0.00    +0.051 C 
BRANCH   9  10
ATOM     10  CA  TYR A   1     -40.071 -22.552 -65.902  0.00  0.00    +0.137 C 
BRANCH  10  11
ATOM     11  N   TYR A   1     -41.516 -22.619 -66.125  0.00  0.00    -0.239 NA
ATOM     12  H   TYR A   1     -42.006 -23.524 -65.977  0.00  0.00    +0.142 HD
ENDBRANCH  10  11
BRANCH  10  13
ATOM     13  C   TYR A   1     -39.536 -23.835 -66.531  0.00  0.00    +0.224 C 
ATOM     14  O   TYR A   1     -39.332 -24.842 -65.850  0.00  0.00    -0.287 OA
ENDBRANCH  10  13
ENDBRANCH   9  10
ENDBRANCH   1   9
TORSDOF 5
REMARK  Name = ../refined-set-2016/4azc/4azc_pocket.pdb
REMARK  155 active torsions:
REMARK  status: ('A' for Active; 'I' for Inactive)
REMARK    1  A    between atoms: _1  and  _3
REMARK    2  A    between atoms: _3  and  _4
REMARK    3  A    between atoms: _3  and  _6
REMARK    4  A    between atoms: _6  and  _7
REMARK    5  A    between atoms: _10  and  _12
REMARK    6  A    between atoms: _12  and  _13
REMARK    7  A    between atoms: _12  and  _15
REMARK    8  A    between atoms: _15  and  _16
REMARK    9  A    between atoms: _16  and  _17
REMARK   10  A    between atoms: _17  and  _18
REMARK   11  A    between atoms: _27  and  _29
REMARK   12  A    between atoms: _29  and  _30
REMARK   13  A    between atoms: _29  and  _32
REMARK   14  A    between atoms: _32  and  _33
REMARK   15  A    between atoms: _36  and  _38
REMARK   16  A    between atoms: _38  and  _39
REMARK   17  A    between atoms: _38  and  _41
REMARK   18  A    between atoms: _41  and  _42
REMARK   19  A    between atoms: _47  and  _49
REMARK   20  A    between atoms: _49  and  _50
REMARK   21  A    between atoms: _49  and  _52
REMARK   22  A    between atoms: _52  and  _53
REMARK   23  A    between atoms: _56  and  _58
REMARK   24  A    between atoms: _58  and  _59
REMARK   25  A    between atoms: _58  and  _61
REMARK   26  A    between atoms: _61  and  _62
REMARK   27  A    between atoms: _67  and  _69
REMARK   28  A    between atoms: _69  and  _70
REMARK   29  A    between atoms: _69  and  _72
REMARK   30  A    between atoms: _72  and  _73
REMARK   31  A    between atoms: _78  and  _80
REMARK   32  A    between atoms: _80  and  _81
REMARK   33  A    between atoms: _80  and  _83
REMARK   34  A    between atoms: _83  and  _84
REMARK   35  A    between atoms: _89  and  _91
REMARK   36  A    between atoms: _91  and  _92
REMARK   37  A    between atoms: _94  and  _96
REMARK   38  A    between atoms: _96  and  _97
REMARK   39  A    between atoms: _96  and  _99
REMARK   40  A    between atoms: _99  and  _100
REMARK   41  A    between atoms: _103  and  _105
REMARK   42  A    between atoms: _105  and  _106
REMARK   43  A    between atoms: _105  and  _108
REMARK   44  A    between atoms: _108  and  _109
REMARK   45  A    between atoms: _112  and  _114
REMARK   46  A    between atoms: _114  and  _115
REMARK   47  A    between atoms: _114  and  _117
REMARK   48  A    between atoms: _117  and  _118
REMARK   49  A    between atoms: _118  and  _119
REMARK   50  A    between atoms: _122  and  _124
REMARK   51  A    between atoms: _124  and  _125
REMARK   52  A    between atoms: _124  and  _127
REMARK   53  A    between atoms: _127  and  _128
REMARK   54  A    between atoms: _133  and  _135
REMARK   55  A    between atoms: _135  and  _136
REMARK   56  A    between atoms: _139  and  _141
REMARK   57  A    between atoms: _141  and  _142
REMARK   58  A    between atoms: _141  and  _144
REMARK   59  A    between atoms: _144  and  _145
REMARK   60  A    between atoms: _151  and  _153
REMARK   61  A    between atoms: _153  and  _154
REMARK   62  A    between atoms: _153  and  _156
REMARK   63  A    between atoms: _156  and  _157
REMARK   64  A    between atoms: _162  and  _164
REMARK   65  A    between atoms: _164  and  _165
REMARK   66  A    between atoms: _164  and  _167
REMARK   67  A    between atoms: _167  and  _168
REMARK   68  A    between atoms: _171  and  _173
REMARK   69  A    between atoms: _173  and  _174
REMARK   70  A    between atoms: _173  and  _176
REMARK   71  A    between atoms: _176  and  _177
REMARK   72  A    between atoms: _179  and  _181
REMARK   73  A    between atoms: _181  and  _182
REMARK   74  A    between atoms: _181  and  _184
REMARK   75  A    between atoms: _184  and  _185
REMARK   76  A    between atoms: _190  and  _191
REMARK   77  A    between atoms: _193  and  _195
REMARK   78  A    between atoms: _195  and  _196
REMARK   79  A    between atoms: _195  and  _198
REMARK   80  A    between atoms: _198  and  _199
REMARK   81  A    between atoms: _209  and  _211
REMARK   82  A    between atoms: _211  and  _212
REMARK   83  A    between atoms: _211  and  _214
REMARK   84  A    between atoms: _214  and  _215
REMARK   85  A    between atoms: _217  and  _219
REMARK   86  A    between atoms: _219  and  _220
REMARK   87  A    between atoms: _219  and  _222
REMARK   88  A    between atoms: _222  and  _223
REMARK   89  A    between atoms: _233  and  _235
REMARK   90  A    between atoms: _235  and  _236
REMARK   91  A    between atoms: _235  and  _238
REMARK   92  A    between atoms: _238  and  _239
REMARK   93  A    between atoms: _244  and  _245
REMARK   94  A    between atoms: _247  and  _249
REMARK   95  A    between atoms: _249  and  _250
REMARK   96  A    between atoms: _249  and  _252
REMARK   97  A    between atoms: _252  and  _253
REMARK   98  A    between atoms: _256  and  _258
REMARK   99  A    between atoms: _258  and  _259
REMARK  100  A    between atoms: _261  and  _263
REMARK  101  A    between atoms: _263  and  _264
REMARK  102  A    between atoms: _263  and  _266
REMARK  103  A    between atoms: _266  and  _267
REMARK  104  A    between atoms: _272  and  _273
REMARK  105  A    between atoms: _275  and  _277
REMARK  106  A    between atoms: _277  and  _278
REMARK  107  A    between atoms: _277  and  _280
REMARK  108  A    between atoms: _280  and  _281
REMARK  109  A    between atoms: _286  and  _287
REMARK  110  A    between atoms: _289  and  _291
REMARK  111  A    between atoms: _291  and  _292
REMARK  112  A    between atoms: _291  and  _294
REMARK  113  A    between atoms: _294  and  _295
REMARK  114  A    between atoms: _298  and  _300
REMARK  115  A    between atoms: _300  and  _301
REMARK  116  A    between atoms: _300  and  _303
REMARK  117  A    between atoms: _303  and  _304
REMARK  118  A    between atoms: _307  and  _309
REMARK  119  A    between atoms: _309  and  _310
REMARK  120  A    between atoms: _309  and  _312
REMARK  121  A    between atoms: _312  and  _313
REMARK  122  A    between atoms: _313  and  _314
REMARK  123  A    between atoms: _319  and  _321
REMARK  124  A    between atoms: _321  and  _322
REMARK  125  A    between atoms: _324  and  _326
REMARK  126  A    between atoms: _326  and  _327
REMARK  127  A    between atoms: _329  and  _331
REMARK  128  A    between atoms: _331  and  _332
REMARK  129  A    between atoms: _331  and  _334
REMARK  130  A    between atoms: _334  and  _335
REMARK  131  A    between atoms: _335  and  _336
REMARK  132  A    between atoms: _338  and  _340
REMARK  133  A    between atoms: _340  and  _341
REMARK  134  A    between atoms: _340  and  _343
REMARK  135  A    between atoms: _343  and  _344
REMARK  136  A    between atoms: _346  and  _348
REMARK  137  A    between atoms: _348  and  _349
REMARK  138  A    between atoms: _348  and  _351
REMARK  139  A    between atoms: _351  and  _352
REMARK  140  A    between atoms: _355  and  _357
REMARK  141  A    between atoms: _357  and  _358
REMARK  142  A    between atoms: _357  and  _360
REMARK  143  A    between atoms: _360  and  _361
REMARK  144  A    between atoms: _371  and  _373
REMARK  145  A    between atoms: _373  and  _374
REMARK  146  A    between atoms: _377  and  _379
REMARK  147  A    between atoms: _379  and  _380
REMARK  148  A    between atoms: _379  and  _382
REMARK  149  A    between atoms: _382  and  _383
REMARK  150  A    between atoms: _386  and  _388
REMARK  151  A    between atoms: _388  and  _389
REMARK  152  A    between atoms: _388  and  _391
REMARK  153  A    between atoms: _391  and  _392
REMARK  154  A    between atoms: _392  and  _393
REMARK  155  A    between atoms: _393  and  _394
REMARK                            x       y       z     vdW  Elec       q    Type
REMARK                         _______ _______ _______ _____ _____    ______ ____
ROOT
ATOM      1  CA  THR A   1     -27.792 -32.499 -57.337  0.00  0.00    +0.160 C 
ENDROOT
BRANCH   1   2
ATOM      2  N   THR A   1     -27.490 -33.331 -58.501  0.00  0.00    -0.237 NA
ATOM      3  H   THR A   1     -27.791 -33.019 -59.446  0.00  0.00    +0.142 HD
ENDBRANCH   1   2
BRANCH   1   4
ATOM      4  C   THR A   1     -29.288 -32.547 -57.108  0.00  0.00    +0.227 C 
ATOM      5  O   THR A   1     -29.939 -31.519 -56.971  0.00  0.00    -0.287 OA
ENDBRANCH   1   4
BRANCH   1   6
ATOM      6  CB  THR A   1     -27.235 -31.061 -57.529  0.00  0.00    +0.134 C 
ATOM      7  CG2 THR A   1     -27.313 -30.230 -56.222  0.00  0.00    +0.034 C 
BRANCH   6   8
ATOM      8  OG1 THR A   1     -25.861 -31.153 -57.965  0.00  0.00    -0.383 OA
ATOM      9  HG1 THR A   1     -25.494 -30.242 -58.091  0.00  0.00    +0.210 HD
ENDBRANCH   6   8
ENDBRANCH   1   6
TORSDOF 4
REMARK  Name = ../refined-set-2016/4azc/4azc_pocket.pdb
REMARK  155 active torsions:
REMARK  status: ('A' for Active; 'I' for Inactive)
REMARK    1  A    between atoms: _1  and  _3
REMARK    2  A    between atoms: _3  and  _4
REMARK    3  A    between atoms: _3  and  _6
REMARK    4  A    between atoms: _6  and  _7
REMARK    5  A    between atoms: _10  and  _12
REMARK    6  A    between atoms: _12  and  _13
REMARK    7  A    between atoms: _12  and  _15
REMARK    8  A    between atoms: _15  and  _16
REMARK    9  A    between atoms: _16  and  _17
REMARK   10  A    between atoms: _17  and  _18
REMARK   11  A    between atoms: _27  and  _29
REMARK   12  A    between atoms: _29  and  _30
REMARK   13  A    between atoms: _29  and  _32
REMARK   14  A    between atoms: _32  and  _33
REMARK   15  A    between atoms: _36  and  _38
REMARK   16  A    between atoms: _38  and  _39
REMARK   17  A    between atoms: _38  and  _41
REMARK   18  A    between atoms: _41  and  _42
REMARK   19  A    between atoms: _47  and  _49
REMARK   20  A    between atoms: _49  and  _50
REMARK   21  A    between atoms: _49  and  _52
REMARK   22  A    between atoms: _52  and  _53
REMARK   23  A    between atoms: _56  and  _58
REMARK   24  A    between atoms: _58  and  _59
REMARK   25  A    between atoms: _58  and  _61
REMARK   26  A    between atoms: _61  and  _62
REMARK   27  A    between atoms: _67  and  _69
REMARK   28  A    between atoms: _69  and  _70
REMARK   29  A    between atoms: _69  and  _72
REMARK   30  A    between atoms: _72  and  _73
REMARK   31  A    between atoms: _78  and  _80
REMARK   32  A    between atoms: _80  and  _81
REMARK   33  A    between atoms: _80  and  _83
REMARK   34  A    between atoms: _83  and  _84
REMARK   35  A    between atoms: _89  and  _91
REMARK   36  A    between atoms: _91  and  _92
REMARK   37  A    between atoms: _94  and  _96
REMARK   38  A    between atoms: _96  and  _97
REMARK   39  A    between atoms: _96  and  _99
REMARK   40  A    between atoms: _99  and  _100
REMARK   41  A    between atoms: _103  and  _105
REMARK   42  A    between atoms: _105  and  _106
REMARK   43  A    between atoms: _105  and  _108
REMARK   44  A    between atoms: _108  and  _109
REMARK   45  A    between atoms: _112  and  _114
REMARK   46  A    between atoms: _114  and  _115
REMARK   47  A    between atoms: _114  and  _117
REMARK   48  A    between atoms: _117  and  _118
REMARK   49  A    between atoms: _118  and  _119
REMARK   50  A    between atoms: _122  and  _124
REMARK   51  A    between atoms: _124  and  _125
REMARK   52  A    between atoms: _124  and  _127
REMARK   53  A    between atoms: _127  and  _128
REMARK   54  A    between atoms: _133  and  _135
REMARK   55  A    between atoms: _135  and  _136
REMARK   56  A    between atoms: _139  and  _141
REMARK   57  A    between atoms: _141  and  _142
REMARK   58  A    between atoms: _141  and  _144
REMARK   59  A    between atoms: _144  and  _145
REMARK   60  A    between atoms: _151  and  _153
REMARK   61  A    between atoms: _153  and  _154
REMARK   62  A    between atoms: _153  and  _156
REMARK   63  A    between atoms: _156  and  _157
REMARK   64  A    between atoms: _162  and  _164
REMARK   65  A    between atoms: _164  and  _165
REMARK   66  A    between atoms: _164  and  _167
REMARK   67  A    between atoms: _167  and  _168
REMARK   68  A    between atoms: _171  and  _173
REMARK   69  A    between atoms: _173  and  _174
REMARK   70  A    between atoms: _173  and  _176
REMARK   71  A    between atoms: _176  and  _177
REMARK   72  A    between atoms: _179  and  _181
REMARK   73  A    between atoms: _181  and  _182
REMARK   74  A    between atoms: _181  and  _184
REMARK   75  A    between atoms: _184  and  _185
REMARK   76  A    between atoms: _190  and  _191
REMARK   77  A    between atoms: _193  and  _195
REMARK   78  A    between atoms: _195  and  _196
REMARK   79  A    between atoms: _195  and  _198
REMARK   80  A    between atoms: _198  and  _199
REMARK   81  A    between atoms: _209  and  _211
REMARK   82  A    between atoms: _211  and  _212
REMARK   83  A    between atoms: _211  and  _214
REMARK   84  A    between atoms: _214  and  _215
REMARK   85  A    between atoms: _217  and  _219
REMARK   86  A    between atoms: _219  and  _220
REMARK   87  A    between atoms: _219  and  _222
REMARK   88  A    between atoms: _222  and  _223
REMARK   89  A    between atoms: _233  and  _235
REMARK   90  A    between atoms: _235  and  _236
REMARK   91  A    between atoms: _235  and  _238
REMARK   92  A    between atoms: _238  and  _239
REMARK   93  A    between atoms: _244  and  _245
REMARK   94  A    between atoms: _247  and  _249
REMARK   95  A    between atoms: _249  and  _250
REMARK   96  A    between atoms: _249  and  _252
REMARK   97  A    between atoms: _252  and  _253
REMARK   98  A    between atoms: _256  and  _258
REMARK   99  A    between atoms: _258  and  _259
REMARK  100  A    between atoms: _261  and  _263
REMARK  101  A    between atoms: _263  and  _264
REMARK  102  A    between atoms: _263  and  _266
REMARK  103  A    between atoms: _266  and  _267
REMARK  104  A    between atoms: _272  and  _273
REMARK  105  A    between atoms: _275  and  _277
REMARK  106  A    between atoms: _277  and  _278
REMARK  107  A    between atoms: _277  and  _280
REMARK  108  A    between atoms: _280  and  _281
REMARK  109  A    between atoms: _286  and  _287
REMARK  110  A    between atoms: _289  and  _291
REMARK  111  A    between atoms: _291  and  _292
REMARK  112  A    between atoms: _291  and  _294
REMARK  113  A    between atoms: _294  and  _295
REMARK  114  A    between atoms: _298  and  _300
REMARK  115  A    between atoms: _300  and  _301
REMARK  116  A    between atoms: _300  and  _303
REMARK  117  A    between atoms: _303  and  _304
REMARK  118  A    between atoms: _307  and  _309
REMARK  119  A    between atoms: _309  and  _310
REMARK  120  A    between atoms: _309  and  _312
REMARK  121  A    between atoms: _312  and  _313
REMARK  122  A    between atoms: _313  and  _314
REMARK  123  A    between atoms: _319  and  _321
REMARK  124  A    between atoms: _321  and  _322
REMARK  125  A    between atoms: _324  and  _326
REMARK  126  A    between atoms: _326  and  _327
REMARK  127  A    between atoms: _329  and  _331
REMARK  128  A    between atoms: _331  and  _332
REMARK  129  A    between atoms: _331  and  _334
REMARK  130  A    between atoms: _334  and  _335
REMARK  131  A    between atoms: _335  and  _336
REMARK  132  A    between atoms: _338  and  _340
REMARK  133  A    between atoms: _340  and  _341
REMARK  134  A    between atoms: _340  and  _343
REMARK  135  A    between atoms: _343  and  _344
REMARK  136  A    between atoms: _346  and  _348
REMARK  137  A    between atoms: _348  and  _349
REMARK  138  A    between atoms: _348  and  _351
REMARK  139  A    between atoms: _351  and  _352
REMARK  140  A    between atoms: _355  and  _357
REMARK  141  A    between atoms: _357  and  _358
REMARK  142  A    between atoms: _357  and  _360
REMARK  143  A    between atoms: _360  and  _361
REMARK  144  A    between atoms: _371  and  _373
REMARK  145  A    between atoms: _373  and  _374
REMARK  146  A    between atoms: _377  and  _379
REMARK  147  A    between atoms: _379  and  _380
REMARK  148  A    between atoms: _379  and  _382
REMARK  149  A    between atoms: _382  and  _383
REMARK  150  A    between atoms: _386  and  _388
REMARK  151  A    between atoms: _388  and  _389
REMARK  152  A    between atoms: _388  and  _391
REMARK  153  A    between atoms: _391  and  _392
REMARK  154  A    between atoms: _392  and  _393
REMARK  155  A    between atoms: _393  and  _394
REMARK                            x       y       z     vdW  Elec       q    Type
REMARK                         _______ _______ _______ _____ _____    ______ ____
ROOT
ATOM      1  CA  GLY A   1     -33.751 -31.582 -55.405  0.00  0.00    +0.156 C 
ENDROOT
BRANCH   1   2
ATOM      2  N   GLY A   1     -32.918 -32.347 -56.343  0.00  0.00    -0.238 NA
ATOM      3  H   GLY A   1     -33.085 -32.238 -57.364  0.00  0.00    +0.142 HD
ENDBRANCH   1   2
BRANCH   1   4
ATOM      4  C   GLY A   1     -34.480 -32.442 -54.374  0.00  0.00    +0.226 C 
ATOM      5  O   GLY A   1     -34.810 -31.943 -53.306  0.00  0.00    -0.287 OA
ENDBRANCH   1   4
TORSDOF 2
REMARK  Name = ../refined-set-2016/4azc/4azc_pocket.pdb
REMARK  155 active torsions:
REMARK  status: ('A' for Active; 'I' for Inactive)
REMARK    1  A    between atoms: _1  and  _3
REMARK    2  A    between atoms: _3  and  _4
REMARK    3  A    between atoms: _3  and  _6
REMARK    4  A    between atoms: _6  and  _7
REMARK    5  A    between atoms: _10  and  _12
REMARK    6  A    between atoms: _12  and  _13
REMARK    7  A    between atoms: _12  and  _15
REMARK    8  A    between atoms: _15  and  _16
REMARK    9  A    between atoms: _16  and  _17
REMARK   10  A    between atoms: _17  and  _18
REMARK   11  A    between atoms: _27  and  _29
REMARK   12  A    between atoms: _29  and  _30
REMARK   13  A    between atoms: _29  and  _32
REMARK   14  A    between atoms: _32  and  _33
REMARK   15  A    between atoms: _36  and  _38
REMARK   16  A    between atoms: _38  and  _39
REMARK   17  A    between atoms: _38  and  _41
REMARK   18  A    between atoms: _41  and  _42
REMARK   19  A    between atoms: _47  and  _49
REMARK   20  A    between atoms: _49  and  _50
REMARK   21  A    between atoms: _49  and  _52
REMARK   22  A    between atoms: _52  and  _53
REMARK   23  A    between atoms: _56  and  _58
REMARK   24  A    between atoms: _58  and  _59
REMARK   25  A    between atoms: _58  and  _61
REMARK   26  A    between atoms: _61  and  _62
REMARK   27  A    between atoms: _67  and  _69
REMARK   28  A    between atoms: _69  and  _70
REMARK   29  A    between atoms: _69  and  _72
REMARK   30  A    between atoms: _72  and  _73
REMARK   31  A    between atoms: _78  and  _80
REMARK   32  A    between atoms: _80  and  _81
REMARK   33  A    between atoms: _80  and  _83
REMARK   34  A    between atoms: _83  and  _84
REMARK   35  A    between atoms: _89  and  _91
REMARK   36  A    between atoms: _91  and  _92
REMARK   37  A    between atoms: _94  and  _96
REMARK   38  A    between atoms: _96  and  _97
REMARK   39  A    between atoms: _96  and  _99
REMARK   40  A    between atoms: _99  and  _100
REMARK   41  A    between atoms: _103  and  _105
REMARK   42  A    between atoms: _105  and  _106
REMARK   43  A    between atoms: _105  and  _108
REMARK   44  A    between atoms: _108  and  _109
REMARK   45  A    between atoms: _112  and  _114
REMARK   46  A    between atoms: _114  and  _115
REMARK   47  A    between atoms: _114  and  _117
REMARK   48  A    between atoms: _117  and  _118
REMARK   49  A    between atoms: _118  and  _119
REMARK   50  A    between atoms: _122  and  _124
REMARK   51  A    between atoms: _124  and  _125
REMARK   52  A    between atoms: _124  and  _127
REMARK   53  A    between atoms: _127  and  _128
REMARK   54  A    between atoms: _133  and  _135
REMARK   55  A    between atoms: _135  and  _136
REMARK   56  A    between atoms: _139  and  _141
REMARK   57  A    between atoms: _141  and  _142
REMARK   58  A    between atoms: _141  and  _144
REMARK   59  A    between atoms: _144  and  _145
REMARK   60  A    between atoms: _151  and  _153
REMARK   61  A    between atoms: _153  and  _154
REMARK   62  A    between atoms: _153  and  _156
REMARK   63  A    between atoms: _156  and  _157
REMARK   64  A    between atoms: _162  and  _164
REMARK   65  A    between atoms: _164  and  _165
REMARK   66  A    between atoms: _164  and  _167
REMARK   67  A    between atoms: _167  and  _168
REMARK   68  A    between atoms: _171  and  _173
REMARK   69  A    between atoms: _173  and  _174
REMARK   70  A    between atoms: _173  and  _176
REMARK   71  A    between atoms: _176  and  _177
REMARK   72  A    between atoms: _179  and  _181
REMARK   73  A    between atoms: _181  and  _182
REMARK   74  A    between atoms: _181  and  _184
REMARK   75  A    between atoms: _184  and  _185
REMARK   76  A    between atoms: _190  and  _191
REMARK   77  A    between atoms: _193  and  _195
REMARK   78  A    between atoms: _195  and  _196
REMARK   79  A    between atoms: _195  and  _198
REMARK   80  A    between atoms: _198  and  _199
REMARK   81  A    between atoms: _209  and  _211
REMARK   82  A    between atoms: _211  and  _212
REMARK   83  A    between atoms: _211  and  _214
REMARK   84  A    between atoms: _214  and  _215
REMARK   85  A    between atoms: _217  and  _219
REMARK   86  A    between atoms: _219  and  _220
REMARK   87  A    between atoms: _219  and  _222
REMARK   88  A    between atoms: _222  and  _223
REMARK   89  A    between atoms: _233  and  _235
REMARK   90  A    between atoms: _235  and  _236
REMARK   91  A    between atoms: _235  and  _238
REMARK   92  A    between atoms: _238  and  _239
REMARK   93  A    between atoms: _244  and  _245
REMARK   94  A    between atoms: _247  and  _249
REMARK   95  A    between atoms: _249  and  _250
REMARK   96  A    between atoms: _249  and  _252
REMARK   97  A    between atoms: _252  and  _253
REMARK   98  A    between atoms: _256  and  _258
REMARK   99  A    between atoms: _258  and  _259
REMARK  100  A    between atoms: _261  and  _263
REMARK  101  A    between atoms: _263  and  _264
REMARK  102  A    between atoms: _263  and  _266
REMARK  103  A    between atoms: _266  and  _267
REMARK  104  A    between atoms: _272  and  _273
REMARK  105  A    between atoms: _275  and  _277
REMARK  106  A    between atoms: _277  and  _278
REMARK  107  A    between atoms: _277  and  _280
REMARK  108  A    between atoms: _280  and  _281
REMARK  109  A    between atoms: _286  and  _287
REMARK  110  A    between atoms: _289  and  _291
REMARK  111  A    between atoms: _291  and  _292
REMARK  112  A    between atoms: _291  and  _294
REMARK  113  A    between atoms: _294  and  _295
REMARK  114  A    between atoms: _298  and  _300
REMARK  115  A    between atoms: _300  and  _301
REMARK  116  A    between atoms: _300  and  _303
REMARK  117  A    between atoms: _303  and  _304
REMARK  118  A    between atoms: _307  and  _309
REMARK  119  A    between atoms: _309  and  _310
REMARK  120  A    between atoms: _309  and  _312
REMARK  121  A    between atoms: _312  and  _313
REMARK  122  A    between atoms: _313  and  _314
REMARK  123  A    between atoms: _319  and  _321
REMARK  124  A    between atoms: _321  and  _322
REMARK  125  A    between atoms: _324  and  _326
REMARK  126  A    between atoms: _326  and  _327
REMARK  127  A    between atoms: _329  and  _331
REMARK  128  A    between atoms: _331  and  _332
REMARK  129  A    between atoms: _331  and  _334
REMARK  130  A    between atoms: _334  and  _335
REMARK  131  A    between atoms: _335  and  _336
REMARK  132  A    between atoms: _338  and  _340
REMARK  133  A    between atoms: _340  and  _341
REMARK  134  A    between atoms: _340  and  _343
REMARK  135  A    between atoms: _343  and  _344
REMARK  136  A    between atoms: _346  and  _348
REMARK  137  A    between atoms: _348  and  _349
REMARK  138  A    between atoms: _348  and  _351
REMARK  139  A    between atoms: _351  and  _352
REMARK  140  A    between atoms: _355  and  _357
REMARK  141  A    between atoms: _357  and  _358
REMARK  142  A    between atoms: _357  and  _360
REMARK  143  A    between atoms: _360  and  _361
REMARK  144  A    between atoms: _371  and  _373
REMARK  145  A    between atoms: _373  and  _374
REMARK  146  A    between atoms: _377  and  _379
REMARK  147  A    between atoms: _379  and  _380
REMARK  148  A    between atoms: _379  and  _382
REMARK  149  A    between atoms: _382  and  _383
REMARK  150  A    between atoms: _386  and  _388
REMARK  151  A    between atoms: _388  and  _389
REMARK  152  A    between atoms: _388  and  _391
REMARK  153  A    between atoms: _391  and  _392
REMARK  154  A    between atoms: _392  and  _393
REMARK  155  A    between atoms: _393  and  _394
REMARK                            x       y       z     vdW  Elec       q    Type
REMARK                         _______ _______ _______ _____ _____    ______ ____
ROOT
ATOM      1  CA  TYR A   2     -33.062 -29.613 -46.697  0.00  0.00    +0.153 C 
ENDROOT
BRANCH   1   3
ATOM      2  C   TYR A   1     -33.295 -30.780 -48.836  0.00  0.00    +0.239 C 
ATOM      3  N   TYR A   2     -32.549 -30.101 -47.972  0.00  0.00    -0.297 N 
ATOM      4  H   TYR A   2     -31.556 -29.909 -48.215  0.00  0.00    +0.150 HD
ATOM      5  O   TYR A   1     -34.392 -31.293 -48.563  0.00  0.00    -0.274 OA
BRANCH   2   6
ATOM      6  CA  TYR A   1     -32.723 -30.865 -50.232  0.00  0.00    +0.149 C 
BRANCH   6   7
ATOM      7  N   TYR A   1     -32.861 -32.179 -50.882  0.00  0.00    -0.238 NA
ATOM      8  H   TYR A   1     -33.447 -32.257 -51.738  0.00  0.00    +0.142 HD
ENDBRANCH   6   7
BRANCH   6   9
ATOM      9  CB  TYR A   1     -33.442 -29.772 -51.034  0.00  0.00    +0.053 C 
BRANCH   9  10
ATOM     10  CG  TYR A   1     -32.793 -29.372 -52.326  0.00  0.00    -0.020 A 
ATOM     11  CD2 TYR A   1     -31.554 -29.894 -52.710  0.00  0.00    -0.001 A 
ATOM     12  CE2 TYR A   1     -30.958 -29.509 -53.915  0.00  0.00    +0.036 A 
ATOM     13  CZ  TYR A   1     -31.617 -28.595 -54.726  0.00  0.00    +0.134 A 
ATOM     14  CE1 TYR A   1     -32.844 -28.068 -54.353  0.00  0.00    +0.036 A 
ATOM     15  CD1 TYR A   1     -33.419 -28.452 -53.166  0.00  0.00    -0.001 A 
BRANCH  13  16
ATOM     16  OH  TYR A   1     -31.052 -28.201 -55.913  0.00  0.00    -0.506 OA
ATOM     17  HH  TYR A   1     -30.906 -27.222 -55.899  0.00  0.00    +0.292 HD
ENDBRANCH  13  16
ENDBRANCH   9  10
ENDBRANCH   6   9
ENDBRANCH   2   6
ENDBRANCH   1   3
BRANCH   1  18
ATOM     18  C   TYR A   2     -32.813 -28.111 -46.612  0.00  0.00    +0.241 C 
ATOM     19  N   ILE A   3     -33.892 -27.370 -46.374  0.00  0.00    -0.297 N 
ATOM     20  H   ILE A   3     -34.815 -27.848 -46.344  0.00  0.00    +0.150 HD
ATOM     21  O   TYR A   2     -31.682 -27.648 -46.791  0.00  0.00    -0.273 OA
BRANCH  19  22
ATOM     22  CA  ILE A   3     -33.861 -25.931 -46.153  0.00  0.00    +0.149 C 
BRANCH  22  23
ATOM     23  C   ILE A   3     -33.933 -25.763 -44.632  0.00  0.00    +0.241 C 
ATOM     24  O   ILE A   3     -34.846 -26.295 -43.992  0.00  0.00    -0.273 OA
ATOM     25  N   LEU A   4     -32.962 -25.061 -44.046  0.00  0.00    -0.298 N 
ATOM     26  H   LEU A   4     -32.224 -24.615 -44.627  0.00  0.00    +0.150 HD
BRANCH  25  27
ATOM     27  CA  LEU A   4     -32.928 -24.914 -42.584  0.00  0.00    +0.137 C 
BRANCH  27  28
ATOM     28  C   LEU A   4     -34.264 -24.403 -42.029  0.00  0.00    +0.227 C 
ATOM     29  O   LEU A   4     -34.823 -23.425 -42.535  0.00  0.00    -0.286 OA
ENDBRANCH  27  28
BRANCH  27  30
ATOM     30  CB  LEU A   4     -31.795 -23.986 -42.145  0.00  0.00    +0.028 C 
BRANCH  30  31
ATOM     31  CG  LEU A   4     -30.368 -24.347 -42.559  0.00  0.00    +0.002 C 
ATOM     32  CD2 LEU A   4     -29.413 -23.415 -41.839  0.00  0.00    +0.000 C 
ATOM     33  CD1 LEU A   4     -30.022 -25.806 -42.281  0.00  0.00    +0.000 C 
ENDBRANCH  30  31
ENDBRANCH  27  30
ENDBRANCH  25  27
ENDBRANCH  22  23
BRANCH  22  34
ATOM     34  CB  ILE A   3     -35.063 -25.240 -46.845  0.00  0.00    +0.027 C 
ATOM     35  CG2 ILE A   3     -35.141 -23.766 -46.463  0.00  0.00    +0.002 C 
BRANCH  34  36
ATOM     36  CG1 ILE A   3     -34.993 -25.421 -48.376  0.00  0.00    +0.002 C 
ATOM     37  CD1 ILE A   3     -36.306 -25.087 -49.124  0.00  0.00    +0.000 C 
ENDBRANCH  34  36
ENDBRANCH  22  34
ENDBRANCH  19  22
ENDBRANCH   1  18
BRANCH   1  38
ATOM     38  CB  TYR A   2     -32.417 -30.336 -45.510  0.00  0.00    +0.055 C 
BRANCH  38  39
ATOM     39  CG  TYR A   2     -32.834 -29.773 -44.168  0.00  0.00    -0.020 A 
ATOM     40  CD2 TYR A   2     -31.878 -29.378 -43.222  0.00  0.00    -0.001 A 
ATOM     41  CE2 TYR A   2     -32.268 -28.844 -41.972  0.00  0.00    +0.036 A 
ATOM     42  CZ  TYR A   2     -33.621 -28.719 -41.676  0.00  0.00    +0.134 A 
ATOM     43  CE1 TYR A   2     -34.586 -29.109 -42.603  0.00  0.00    +0.036 A 
ATOM     44  CD1 TYR A   2     -34.188 -29.630 -43.840  0.00  0.00    -0.001 A 
BRANCH  42  45
ATOM     45  OH  TYR A   2     -34.021 -28.207 -40.457  0.00  0.00    -0.506 OA
ATOM     46  HH  TYR A   2     -33.670 -28.779 -39.729  0.00  0.00    +0.292 HD
ENDBRANCH  42  45
ENDBRANCH  38  39
ENDBRANCH   1  38
TORSDOF 18
REMARK  Name = ../refined-set-2016/4azc/4azc_pocket.pdb
REMARK  155 active torsions:
REMARK  status: ('A' for Active; 'I' for Inactive)
REMARK    1  A    between atoms: _1  and  _3
REMARK    2  A    between atoms: _3  and  _4
REMARK    3  A    between atoms: _3  and  _6
REMARK    4  A    between atoms: _6  and  _7
REMARK    5  A    between atoms: _10  and  _12
REMARK    6  A    between atoms: _12  and  _13
REMARK    7  A    between atoms: _12  and  _15
REMARK    8  A    between atoms: _15  and  _16
REMARK    9  A    between atoms: _16  and  _17
REMARK   10  A    between atoms: _17  and  _18
REMARK   11  A    between atoms: _27  and  _29
REMARK   12  A    between atoms: _29  and  _30
REMARK   13  A    between atoms: _29  and  _32
REMARK   14  A    between atoms: _32  and  _33
REMARK   15  A    between atoms: _36  and  _38
REMARK   16  A    between atoms: _38  and  _39
REMARK   17  A    between atoms: _38  and  _41
REMARK   18  A    between atoms: _41  and  _42
REMARK   19  A    between atoms: _47  and  _49
REMARK   20  A    between atoms: _49  and  _50
REMARK   21  A    between atoms: _49  and  _52
REMARK   22  A    between atoms: _52  and  _53
REMARK   23  A    between atoms: _56  and  _58
REMARK   24  A    between atoms: _58  and  _59
REMARK   25  A    between atoms: _58  and  _61
REMARK   26  A    between atoms: _61  and  _62
REMARK   27  A    between atoms: _67  and  _69
REMARK   28  A    between atoms: _69  and  _70
REMARK   29  A    between atoms: _69  and  _72
REMARK   30  A    between atoms: _72  and  _73
REMARK   31  A    between atoms: _78  and  _80
REMARK   32  A    between atoms: _80  and  _81
REMARK   33  A    between atoms: _80  and  _83
REMARK   34  A    between atoms: _83  and  _84
REMARK   35  A    between atoms: _89  and  _91
REMARK   36  A    between atoms: _91  and  _92
REMARK   37  A    between atoms: _94  and  _96
REMARK   38  A    between atoms: _96  and  _97
REMARK   39  A    between atoms: _96  and  _99
REMARK   40  A    between atoms: _99  and  _100
REMARK   41  A    between atoms: _103  and  _105
REMARK   42  A    between atoms: _105  and  _106
REMARK   43  A    between atoms: _105  and  _108
REMARK   44  A    between atoms: _108  and  _109
REMARK   45  A    between atoms: _112  and  _114
REMARK   46  A    between atoms: _114  and  _115
REMARK   47  A    between atoms: _114  and  _117
REMARK   48  A    between atoms: _117  and  _118
REMARK   49  A    between atoms: _118  and  _119
REMARK   50  A    between atoms: _122  and  _124
REMARK   51  A    between atoms: _124  and  _125
REMARK   52  A    between atoms: _124  and  _127
REMARK   53  A    between atoms: _127  and  _128
REMARK   54  A    between atoms: _133  and  _135
REMARK   55  A    between atoms: _135  and  _136
REMARK   56  A    between atoms: _139  and  _141
REMARK   57  A    between atoms: _141  and  _142
REMARK   58  A    between atoms: _141  and  _144
REMARK   59  A    between atoms: _144  and  _145
REMARK   60  A    between atoms: _151  and  _153
REMARK   61  A    between atoms: _153  and  _154
REMARK   62  A    between atoms: _153  and  _156
REMARK   63  A    between atoms: _156  and  _157
REMARK   64  A    between atoms: _162  and  _164
REMARK   65  A    between atoms: _164  and  _165
REMARK   66  A    between atoms: _164  and  _167
REMARK   67  A    between atoms: _167  and  _168
REMARK   68  A    between atoms: _171  and  _173
REMARK   69  A    between atoms: _173  and  _174
REMARK   70  A    between atoms: _173  and  _176
REMARK   71  A    between atoms: _176  and  _177
REMARK   72  A    between atoms: _179  and  _181
REMARK   73  A    between atoms: _181  and  _182
REMARK   74  A    between atoms: _181  and  _184
REMARK   75  A    between atoms: _184  and  _185
REMARK   76  A    between atoms: _190  and  _191
REMARK   77  A    between atoms: _193  and  _195
REMARK   78  A    between atoms: _195  and  _196
REMARK   79  A    between atoms: _195  and  _198
REMARK   80  A    between atoms: _198  and  _199
REMARK   81  A    between atoms: _209  and  _211
REMARK   82  A    between atoms: _211  and  _212
REMARK   83  A    between atoms: _211  and  _214
REMARK   84  A    between atoms: _214  and  _215
REMARK   85  A    between atoms: _217  and  _219
REMARK   86  A    between atoms: _219  and  _220
REMARK   87  A    between atoms: _219  and  _222
REMARK   88  A    between atoms: _222  and  _223
REMARK   89  A    between atoms: _233  and  _235
REMARK   90  A    between atoms: _235  and  _236
REMARK   91  A    between atoms: _235  and  _238
REMARK   92  A    between atoms: _238  and  _239
REMARK   93  A    between atoms: _244  and  _245
REMARK   94  A    between atoms: _247  and  _249
REMARK   95  A    between atoms: _249  and  _250
REMARK   96  A    between atoms: _249  and  _252
REMARK   97  A    between atoms: _252  and  _253
REMARK   98  A    between atoms: _256  and  _258
REMARK   99  A    between atoms: _258  and  _259
REMARK  100  A    between atoms: _261  and  _263
REMARK  101  A    between atoms: _263  and  _264
REMARK  102  A    between atoms: _263  and  _266
REMARK  103  A    between atoms: _266  and  _267
REMARK  104  A    between atoms: _272  and  _273
REMARK  105  A    between atoms: _275  and  _277
REMARK  106  A    between atoms: _277  and  _278
REMARK  107  A    between atoms: _277  and  _280
REMARK  108  A    between atoms: _280  and  _281
REMARK  109  A    between atoms: _286  and  _287
REMARK  110  A    between atoms: _289  and  _291
REMARK  111  A    between atoms: _291  and  _292
REMARK  112  A    between atoms: _291  and  _294
REMARK  113  A    between atoms: _294  and  _295
REMARK  114  A    between atoms: _298  and  _300
REMARK  115  A    between atoms: _300  and  _301
REMARK  116  A    between atoms: _300  and  _303
REMARK  117  A    between atoms: _303  and  _304
REMARK  118  A    between atoms: _307  and  _309
REMARK  119  A    between atoms: _309  and  _310
REMARK  120  A    between atoms: _309  and  _312
REMARK  121  A    between atoms: _312  and  _313
REMARK  122  A    between atoms: _313  and  _314
REMARK  123  A    between atoms: _319  and  _321
REMARK  124  A    between atoms: _321  and  _322
REMARK  125  A    between atoms: _324  and  _326
REMARK  126  A    between atoms: _326  and  _327
REMARK  127  A    between atoms: _329  and  _331
REMARK  128  A    between atoms: _331  and  _332
REMARK  129  A    between atoms: _331  and  _334
REMARK  130  A    between atoms: _334  and  _335
REMARK  131  A    between atoms: _335  and  _336
REMARK  132  A    between atoms: _338  and  _340
REMARK  133  A    between atoms: _340  and  _341
REMARK  134  A    between atoms: _340  and  _343
REMARK  135  A    between atoms: _343  and  _344
REMARK  136  A    between atoms: _346  and  _348
REMARK  137  A    between atoms: _348  and  _349
REMARK  138  A    between atoms: _348  and  _351
REMARK  139  A    between atoms: _351  and  _352
REMARK  140  A    between atoms: _355  and  _357
REMARK  141  A    between atoms: _357  and  _358
REMARK  142  A    between atoms: _357  and  _360
REMARK  143  A    between atoms: _360  and  _361
REMARK  144  A    between atoms: _371  and  _373
REMARK  145  A    between atoms: _373  and  _374
REMARK  146  A    between atoms: _377  and  _379
REMARK  147  A    between atoms: _379  and  _380
REMARK  148  A    between atoms: _379  and  _382
REMARK  149  A    between atoms: _382  and  _383
REMARK  150  A    between atoms: _386  and  _388
REMARK  151  A    between atoms: _388  and  _389
REMARK  152  A    between atoms: _388  and  _391
REMARK  153  A    between atoms: _391  and  _392
REMARK  154  A    between atoms: _392  and  _393
REMARK  155  A    between atoms: _393  and  _394
REMARK                            x       y       z     vdW  Elec       q    Type
REMARK                         _______ _______ _______ _____ _____    ______ ____
ROOT
ATOM      1  CB  GLN A   1     -38.017 -26.524 -44.380  0.00  0.00    +0.035 C 
ENDROOT
BRANCH   1   2
ATOM      2  CA  GLN A   1     -38.411 -26.054 -42.968  0.00  0.00    +0.134 C 
BRANCH   2   3
ATOM      3  N   GLN A   1     -37.231 -25.626 -42.216  0.00  0.00    -0.239 NA
ATOM      4  H   GLN A   1     -36.292 -25.787 -42.632  0.00  0.00    +0.142 HD
ENDBRANCH   2   3
BRANCH   2   5
ATOM      5  C   GLN A   1     -39.114 -27.182 -42.228  0.00  0.00    +0.224 C 
ATOM      6  O   GLN A   1     -38.472 -28.150 -41.801  0.00  0.00    -0.287 OA
ENDBRANCH   2   5
ENDBRANCH   1   2
BRANCH   1   7
ATOM      7  CG  GLN A   1     -39.169 -26.652 -45.383  0.00  0.00    +0.087 C 
BRANCH   7   8
ATOM      8  CD  GLN A   1     -39.502 -25.338 -46.081  0.00  0.00    +0.219 C 
ATOM      9  OE1 GLN A   1     -38.965 -24.286 -45.743  0.00  0.00    -0.275 OA
ATOM     10  NE2 GLN A   1     -40.386 -25.400 -47.067  0.00  0.00    -0.329 N 
ATOM     11 HE21 GLN A   1     -40.818 -26.311 -47.322  0.00  0.00    +0.145 HD
ATOM     12 HE22 GLN A   1     -40.648 -24.537 -47.586  0.00  0.00    +0.145 HD
ENDBRANCH   7   8
ENDBRANCH   1   7
TORSDOF 5
REMARK  Name = ../refined-set-2016/4azc/4azc_pocket.pdb
REMARK  155 active torsions:
REMARK  status: ('A' for Active; 'I' for Inactive)
REMARK    1  A    between atoms: _1  and  _3
REMARK    2  A    between atoms: _3  and  _4
REMARK    3  A    between atoms: _3  and  _6
REMARK    4  A    between atoms: _6  and  _7
REMARK    5  A    between atoms: _10  and  _12
REMARK    6  A    between atoms: _12  and  _13
REMARK    7  A    between atoms: _12  and  _15
REMARK    8  A    between atoms: _15  and  _16
REMARK    9  A    between atoms: _16  and  _17
REMARK   10  A    between atoms: _17  and  _18
REMARK   11  A    between atoms: _27  and  _29
REMARK   12  A    between atoms: _29  and  _30
REMARK   13  A    between atoms: _29  and  _32
REMARK   14  A    between atoms: _32  and  _33
REMARK   15  A    between atoms: _36  and  _38
REMARK   16  A    between atoms: _38  and  _39
REMARK   17  A    between atoms: _38  and  _41
REMARK   18  A    between atoms: _41  and  _42
REMARK   19  A    between atoms: _47  and  _49
REMARK   20  A    between atoms: _49  and  _50
REMARK   21  A    between atoms: _49  and  _52
REMARK   22  A    between atoms: _52  and  _53
REMARK   23  A    between atoms: _56  and  _58
REMARK   24  A    between atoms: _58  and  _59
REMARK   25  A    between atoms: _58  and  _61
REMARK   26  A    between atoms: _61  and  _62
REMARK   27  A    between atoms: _67  and  _69
REMARK   28  A    between atoms: _69  and  _70
REMARK   29  A    between atoms: _69  and  _72
REMARK   30  A    between atoms: _72  and  _73
REMARK   31  A    between atoms: _78  and  _80
REMARK   32  A    between atoms: _80  and  _81
REMARK   33  A    between atoms: _80  and  _83
REMARK   34  A    between atoms: _83  and  _84
REMARK   35  A    between atoms: _89  and  _91
REMARK   36  A    between atoms: _91  and  _92
REMARK   37  A    between atoms: _94  and  _96
REMARK   38  A    between atoms: _96  and  _97
REMARK   39  A    between atoms: _96  and  _99
REMARK   40  A    between atoms: _99  and  _100
REMARK   41  A    between atoms: _103  and  _105
REMARK   42  A    between atoms: _105  and  _106
REMARK   43  A    between atoms: _105  and  _108
REMARK   44  A    between atoms: _108  and  _109
REMARK   45  A    between atoms: _112  and  _114
REMARK   46  A    between atoms: _114  and  _115
REMARK   47  A    between atoms: _114  and  _117
REMARK   48  A    between atoms: _117  and  _118
REMARK   49  A    between atoms: _118  and  _119
REMARK   50  A    between atoms: _122  and  _124
REMARK   51  A    between atoms: _124  and  _125
REMARK   52  A    between atoms: _124  and  _127
REMARK   53  A    between atoms: _127  and  _128
REMARK   54  A    between atoms: _133  and  _135
REMARK   55  A    between atoms: _135  and  _136
REMARK   56  A    between atoms: _139  and  _141
REMARK   57  A    between atoms: _141  and  _142
REMARK   58  A    between atoms: _141  and  _144
REMARK   59  A    between atoms: _144  and  _145
REMARK   60  A    between atoms: _151  and  _153
REMARK   61  A    between atoms: _153  and  _154
REMARK   62  A    between atoms: _153  and  _156
REMARK   63  A    between atoms: _156  and  _157
REMARK   64  A    between atoms: _162  and  _164
REMARK   65  A    between atoms: _164  and  _165
REMARK   66  A    between atoms: _164  and  _167
REMARK   67  A    between atoms: _167  and  _168
REMARK   68  A    between atoms: _171  and  _173
REMARK   69  A    between atoms: _173  and  _174
REMARK   70  A    between atoms: _173  and  _176
REMARK   71  A    between atoms: _176  and  _177
REMARK   72  A    between atoms: _179  and  _181
REMARK   73  A    between atoms: _181  and  _182
REMARK   74  A    between atoms: _181  and  _184
REMARK   75  A    between atoms: _184  and  _185
REMARK   76  A    between atoms: _190  and  _191
REMARK   77  A    between atoms: _193  and  _195
REMARK   78  A    between atoms: _195  and  _196
REMARK   79  A    between atoms: _195  and  _198
REMARK   80  A    between atoms: _198  and  _199
REMARK   81  A    between atoms: _209  and  _211
REMARK   82  A    between atoms: _211  and  _212
REMARK   83  A    between atoms: _211  and  _214
REMARK   84  A    between atoms: _214  and  _215
REMARK   85  A    between atoms: _217  and  _219
REMARK   86  A    between atoms: _219  and  _220
REMARK   87  A    between atoms: _219  and  _222
REMARK   88  A    between atoms: _222  and  _223
REMARK   89  A    between atoms: _233  and  _235
REMARK   90  A    between atoms: _235  and  _236
REMARK   91  A    between atoms: _235  and  _238
REMARK   92  A    between atoms: _238  and  _239
REMARK   93  A    between atoms: _244  and  _245
REMARK   94  A    between atoms: _247  and  _249
REMARK   95  A    between atoms: _249  and  _250
REMARK   96  A    between atoms: _249  and  _252
REMARK   97  A    between atoms: _252  and  _253
REMARK   98  A    between atoms: _256  and  _258
REMARK   99  A    between atoms: _258  and  _259
REMARK  100  A    between atoms: _261  and  _263
REMARK  101  A    between atoms: _263  and  _264
REMARK  102  A    between atoms: _263  and  _266
REMARK  103  A    between atoms: _266  and  _267
REMARK  104  A    between atoms: _272  and  _273
REMARK  105  A    between atoms: _275  and  _277
REMARK  106  A    between atoms: _277  and  _278
REMARK  107  A    between atoms: _277  and  _280
REMARK  108  A    between atoms: _280  and  _281
REMARK  109  A    between atoms: _286  and  _287
REMARK  110  A    between atoms: _289  and  _291
REMARK  111  A    between atoms: _291  and  _292
REMARK  112  A    between atoms: _291  and  _294
REMARK  113  A    between atoms: _294  and  _295
REMARK  114  A    between atoms: _298  and  _300
REMARK  115  A    between atoms: _300  and  _301
REMARK  116  A    between atoms: _300  and  _303
REMARK  117  A    between atoms: _303  and  _304
REMARK  118  A    between atoms: _307  and  _309
REMARK  119  A    between atoms: _309  and  _310
REMARK  120  A    between atoms: _309  and  _312
REMARK  121  A    between atoms: _312  and  _313
REMARK  122  A    between atoms: _313  and  _314
REMARK  123  A    between atoms: _319  and  _321
REMARK  124  A    between atoms: _321  and  _322
REMARK  125  A    between atoms: _324  and  _326
REMARK  126  A    between atoms: _326  and  _327
REMARK  127  A    between atoms: _329  and  _331
REMARK  128  A    between atoms: _331  and  _332
REMARK  129  A    between atoms: _331  and  _334
REMARK  130  A    between atoms: _334  and  _335
REMARK  131  A    between atoms: _335  and  _336
REMARK  132  A    between atoms: _338  and  _340
REMARK  133  A    between atoms: _340  and  _341
REMARK  134  A    between atoms: _340  and  _343
REMARK  135  A    between atoms: _343  and  _344
REMARK  136  A    between atoms: _346  and  _348
REMARK  137  A    between atoms: _348  and  _349
REMARK  138  A    between atoms: _348  and  _351
REMARK  139  A    between atoms: _351  and  _352
REMARK  140  A    between atoms: _355  and  _357
REMARK  141  A    between atoms: _357  and  _358
REMARK  142  A    between atoms: _357  and  _360
REMARK  143  A    between atoms: _360  and  _361
REMARK  144  A    between atoms: _371  and  _373
REMARK  145  A    between atoms: _373  and  _374
REMARK  146  A    between atoms: _377  and  _379
REMARK  147  A    between atoms: _379  and  _380
REMARK  148  A    between atoms: _379  and  _382
REMARK  149  A    between atoms: _382  and  _383
REMARK  150  A    between atoms: _386  and  _388
REMARK  151  A    between atoms: _388  and  _389
REMARK  152  A    between atoms: _388  and  _391
REMARK  153  A    between atoms: _391  and  _392
REMARK  154  A    between atoms: _392  and  _393
REMARK  155  A    between atoms: _393  and  _394
REMARK                            x       y       z     vdW  Elec       q    Type
REMARK                         _______ _______ _______ _____ _____    ______ ____
ROOT
ATOM      1  C   GLY A   1     -39.927 -29.447 -49.143  0.00  0.00    +0.240 C 
ATOM      2  O   GLY A   1     -40.211 -30.524 -48.623  0.00  0.00    -0.274 OA
ATOM      3  N   GLY A   2     -38.716 -28.895 -49.055  0.00  0.00    -0.297 N 
ATOM      4  H   GLY A   2     -38.583 -27.923 -49.401  0.00  0.00    +0.150 HD
ENDROOT
BRANCH   1   5
ATOM      5  CA  GLY A   1     -40.983 -28.647 -49.892  0.00  0.00    +0.169 C 
BRANCH   5   6
ATOM      6  N   GLY A   1     -42.352 -28.785 -49.370  0.00  0.00    -0.236 NA
ATOM      7  H   GLY A   1     -43.094 -29.157 -49.997  0.00  0.00    +0.142 HD
ENDBRANCH   5   6
ENDBRANCH   1   5
BRANCH   3   8
ATOM      8  CA  GLY A   2     -37.558 -29.609 -48.487  0.00  0.00    +0.163 C 
BRANCH   8   9
ATOM      9  C   GLY A   2     -37.403 -29.579 -46.976  0.00  0.00    +0.229 C 
ATOM     10  O   GLY A   2     -36.459 -28.969 -46.468  0.00  0.00    -0.286 OA
ENDBRANCH   8   9
ENDBRANCH   3   8
TORSDOF 4
REMARK  Name = ../refined-set-2016/4azc/4azc_pocket.pdb
REMARK  155 active torsions:
REMARK  status: ('A' for Active; 'I' for Inactive)
REMARK    1  A    between atoms: _1  and  _3
REMARK    2  A    between atoms: _3  and  _4
REMARK    3  A    between atoms: _3  and  _6
REMARK    4  A    between atoms: _6  and  _7
REMARK    5  A    between atoms: _10  and  _12
REMARK    6  A    between atoms: _12  and  _13
REMARK    7  A    between atoms: _12  and  _15
REMARK    8  A    between atoms: _15  and  _16
REMARK    9  A    between atoms: _16  and  _17
REMARK   10  A    between atoms: _17  and  _18
REMARK   11  A    between atoms: _27  and  _29
REMARK   12  A    between atoms: _29  and  _30
REMARK   13  A    between atoms: _29  and  _32
REMARK   14  A    between atoms: _32  and  _33
REMARK   15  A    between atoms: _36  and  _38
REMARK   16  A    between atoms: _38  and  _39
REMARK   17  A    between atoms: _38  and  _41
REMARK   18  A    between atoms: _41  and  _42
REMARK   19  A    between atoms: _47  and  _49
REMARK   20  A    between atoms: _49  and  _50
REMARK   21  A    between atoms: _49  and  _52
REMARK   22  A    between atoms: _52  and  _53
REMARK   23  A    between atoms: _56  and  _58
REMARK   24  A    between atoms: _58  and  _59
REMARK   25  A    between atoms: _58  and  _61
REMARK   26  A    between atoms: _61  and  _62
REMARK   27  A    between atoms: _67  and  _69
REMARK   28  A    between atoms: _69  and  _70
REMARK   29  A    between atoms: _69  and  _72
REMARK   30  A    between atoms: _72  and  _73
REMARK   31  A    between atoms: _78  and  _80
REMARK   32  A    between atoms: _80  and  _81
REMARK   33  A    between atoms: _80  and  _83
REMARK   34  A    between atoms: _83  and  _84
REMARK   35  A    between atoms: _89  and  _91
REMARK   36  A    between atoms: _91  and  _92
REMARK   37  A    between atoms: _94  and  _96
REMARK   38  A    between atoms: _96  and  _97
REMARK   39  A    between atoms: _96  and  _99
REMARK   40  A    between atoms: _99  and  _100
REMARK   41  A    between atoms: _103  and  _105
REMARK   42  A    between atoms: _105  and  _106
REMARK   43  A    between atoms: _105  and  _108
REMARK   44  A    between atoms: _108  and  _109
REMARK   45  A    between atoms: _112  and  _114
REMARK   46  A    between atoms: _114  and  _115
REMARK   47  A    between atoms: _114  and  _117
REMARK   48  A    between atoms: _117  and  _118
REMARK   49  A    between atoms: _118  and  _119
REMARK   50  A    between atoms: _122  and  _124
REMARK   51  A    between atoms: _124  and  _125
REMARK   52  A    between atoms: _124  and  _127
REMARK   53  A    between atoms: _127  and  _128
REMARK   54  A    between atoms: _133  and  _135
REMARK   55  A    between atoms: _135  and  _136
REMARK   56  A    between atoms: _139  and  _141
REMARK   57  A    between atoms: _141  and  _142
REMARK   58  A    between atoms: _141  and  _144
REMARK   59  A    between atoms: _144  and  _145
REMARK   60  A    between atoms: _151  and  _153
REMARK   61  A    between atoms: _153  and  _154
REMARK   62  A    between atoms: _153  and  _156
REMARK   63  A    between atoms: _156  and  _157
REMARK   64  A    between atoms: _162  and  _164
REMARK   65  A    between atoms: _164  and  _165
REMARK   66  A    between atoms: _164  and  _167
REMARK   67  A    between atoms: _167  and  _168
REMARK   68  A    between atoms: _171  and  _173
REMARK   69  A    between atoms: _173  and  _174
REMARK   70  A    between atoms: _173  and  _176
REMARK   71  A    between atoms: _176  and  _177
REMARK   72  A    between atoms: _179  and  _181
REMARK   73  A    between atoms: _181  and  _182
REMARK   74  A    between atoms: _181  and  _184
REMARK   75  A    between atoms: _184  and  _185
REMARK   76  A    between atoms: _190  and  _191
REMARK   77  A    between atoms: _193  and  _195
REMARK   78  A    between atoms: _195  and  _196
REMARK   79  A    between atoms: _195  and  _198
REMARK   80  A    between atoms: _198  and  _199
REMARK   81  A    between atoms: _209  and  _211
REMARK   82  A    between atoms: _211  and  _212
REMARK   83  A    between atoms: _211  and  _214
REMARK   84  A    between atoms: _214  and  _215
REMARK   85  A    between atoms: _217  and  _219
REMARK   86  A    between atoms: _219  and  _220
REMARK   87  A    between atoms: _219  and  _222
REMARK   88  A    between atoms: _222  and  _223
REMARK   89  A    between atoms: _233  and  _235
REMARK   90  A    between atoms: _235  and  _236
REMARK   91  A    between atoms: _235  and  _238
REMARK   92  A    between atoms: _238  and  _239
REMARK   93  A    between atoms: _244  and  _245
REMARK   94  A    between atoms: _247  and  _249
REMARK   95  A    between atoms: _249  and  _250
REMARK   96  A    between atoms: _249  and  _252
REMARK   97  A    between atoms: _252  and  _253
REMARK   98  A    between atoms: _256  and  _258
REMARK   99  A    between atoms: _258  and  _259
REMARK  100  A    between atoms: _261  and  _263
REMARK  101  A    between atoms: _263  and  _264
REMARK  102  A    between atoms: _263  and  _266
REMARK  103  A    between atoms: _266  and  _267
REMARK  104  A    between atoms: _272  and  _273
REMARK  105  A    between atoms: _275  and  _277
REMARK  106  A    between atoms: _277  and  _278
REMARK  107  A    between atoms: _277  and  _280
REMARK  108  A    between atoms: _280  and  _281
REMARK  109  A    between atoms: _286  and  _287
REMARK  110  A    between atoms: _289  and  _291
REMARK  111  A    between atoms: _291  and  _292
REMARK  112  A    between atoms: _291  and  _294
REMARK  113  A    between atoms: _294  and  _295
REMARK  114  A    between atoms: _298  and  _300
REMARK  115  A    between atoms: _300  and  _301
REMARK  116  A    between atoms: _300  and  _303
REMARK  117  A    between atoms: _303  and  _304
REMARK  118  A    between atoms: _307  and  _309
REMARK  119  A    between atoms: _309  and  _310
REMARK  120  A    between atoms: _309  and  _312
REMARK  121  A    between atoms: _312  and  _313
REMARK  122  A    between atoms: _313  and  _314
REMARK  123  A    between atoms: _319  and  _321
REMARK  124  A    between atoms: _321  and  _322
REMARK  125  A    between atoms: _324  and  _326
REMARK  126  A    between atoms: _326  and  _327
REMARK  127  A    between atoms: _329  and  _331
REMARK  128  A    between atoms: _331  and  _332
REMARK  129  A    between atoms: _331  and  _334
REMARK  130  A    between atoms: _334  and  _335
REMARK  131  A    between atoms: _335  and  _336
REMARK  132  A    between atoms: _338  and  _340
REMARK  133  A    between atoms: _340  and  _341
REMARK  134  A    between atoms: _340  and  _343
REMARK  135  A    between atoms: _343  and  _344
REMARK  136  A    between atoms: _346  and  _348
REMARK  137  A    between atoms: _348  and  _349
REMARK  138  A    between atoms: _348  and  _351
REMARK  139  A    between atoms: _351  and  _352
REMARK  140  A    between atoms: _355  and  _357
REMARK  141  A    between atoms: _357  and  _358
REMARK  142  A    between atoms: _357  and  _360
REMARK  143  A    between atoms: _360  and  _361
REMARK  144  A    between atoms: _371  and  _373
REMARK  145  A    between atoms: _373  and  _374
REMARK  146  A    between atoms: _377  and  _379
REMARK  147  A    between atoms: _379  and  _380
REMARK  148  A    between atoms: _379  and  _382
REMARK  149  A    between atoms: _382  and  _383
REMARK  150  A    between atoms: _386  and  _388
REMARK  151  A    between atoms: _388  and  _389
REMARK  152  A    between atoms: _388  and  _391
REMARK  153  A    between atoms: _391  and  _392
REMARK  154  A    between atoms: _392  and  _393
REMARK  155  A    between atoms: _393  and  _394
REMARK                            x       y       z     vdW  Elec       q    Type
REMARK                         _______ _______ _______ _____ _____    ______ ____
ROOT
ATOM      1  CA  MET A   1     -24.592 -33.845 -54.243  0.00  0.00    +0.134 C 
ENDROOT
BRANCH   1   2
ATOM      2  N   MET A   1     -24.705 -34.901 -55.233  0.00  0.00    -0.239 NA
ATOM      3  H   MET A   1     -25.539 -34.920 -55.854  0.00  0.00    +0.142 HD
ENDBRANCH   1   2
BRANCH   1   4
ATOM      4  C   MET A   1     -25.907 -33.647 -53.459  0.00  0.00    +0.224 C 
ATOM      5  O   MET A   1     -26.964 -33.406 -54.053  0.00  0.00    -0.287 OA
ENDBRANCH   1   4
BRANCH   1   6
ATOM      6  CB  MET A   1     -24.179 -32.537 -54.918  0.00  0.00    +0.037 C 
BRANCH   6   7
ATOM      7  CG  MET A   1     -24.043 -31.357 -53.928  0.00  0.00    +0.059 C 
BRANCH   7   8
ATOM      8  SD  MET A   1     -22.916 -30.054 -54.482  0.00  0.00    -0.139 S 
ATOM      9  CE  MET A   1     -24.009 -29.010 -55.440  0.00  0.00    +0.069 C 
ENDBRANCH   7   8
ENDBRANCH   6   7
ENDBRANCH   1   6
TORSDOF 5
REMARK  Name = ../refined-set-2016/4azc/4azc_pocket.pdb
REMARK  155 active torsions:
REMARK  status: ('A' for Active; 'I' for Inactive)
REMARK    1  A    between atoms: _1  and  _3
REMARK    2  A    between atoms: _3  and  _4
REMARK    3  A    between atoms: _3  and  _6
REMARK    4  A    between atoms: _6  and  _7
REMARK    5  A    between atoms: _10  and  _12
REMARK    6  A    between atoms: _12  and  _13
REMARK    7  A    between atoms: _12  and  _15
REMARK    8  A    between atoms: _15  and  _16
REMARK    9  A    between atoms: _16  and  _17
REMARK   10  A    between atoms: _17  and  _18
REMARK   11  A    between atoms: _27  and  _29
REMARK   12  A    between atoms: _29  and  _30
REMARK   13  A    between atoms: _29  and  _32
REMARK   14  A    between atoms: _32  and  _33
REMARK   15  A    between atoms: _36  and  _38
REMARK   16  A    between atoms: _38  and  _39
REMARK   17  A    between atoms: _38  and  _41
REMARK   18  A    between atoms: _41  and  _42
REMARK   19  A    between atoms: _47  and  _49
REMARK   20  A    between atoms: _49  and  _50
REMARK   21  A    between atoms: _49  and  _52
REMARK   22  A    between atoms: _52  and  _53
REMARK   23  A    between atoms: _56  and  _58
REMARK   24  A    between atoms: _58  and  _59
REMARK   25  A    between atoms: _58  and  _61
REMARK   26  A    between atoms: _61  and  _62
REMARK   27  A    between atoms: _67  and  _69
REMARK   28  A    between atoms: _69  and  _70
REMARK   29  A    between atoms: _69  and  _72
REMARK   30  A    between atoms: _72  and  _73
REMARK   31  A    between atoms: _78  and  _80
REMARK   32  A    between atoms: _80  and  _81
REMARK   33  A    between atoms: _80  and  _83
REMARK   34  A    between atoms: _83  and  _84
REMARK   35  A    between atoms: _89  and  _91
REMARK   36  A    between atoms: _91  and  _92
REMARK   37  A    between atoms: _94  and  _96
REMARK   38  A    between atoms: _96  and  _97
REMARK   39  A    between atoms: _96  and  _99
REMARK   40  A    between atoms: _99  and  _100
REMARK   41  A    between atoms: _103  and  _105
REMARK   42  A    between atoms: _105  and  _106
REMARK   43  A    between atoms: _105  and  _108
REMARK   44  A    between atoms: _108  and  _109
REMARK   45  A    between atoms: _112  and  _114
REMARK   46  A    between atoms: _114  and  _115
REMARK   47  A    between atoms: _114  and  _117
REMARK   48  A    between atoms: _117  and  _118
REMARK   49  A    between atoms: _118  and  _119
REMARK   50  A    between atoms: _122  and  _124
REMARK   51  A    between atoms: _124  and  _125
REMARK   52  A    between atoms: _124  and  _127
REMARK   53  A    between atoms: _127  and  _128
REMARK   54  A    between atoms: _133  and  _135
REMARK   55  A    between atoms: _135  and  _136
REMARK   56  A    between atoms: _139  and  _141
REMARK   57  A    between atoms: _141  and  _142
REMARK   58  A    between atoms: _141  and  _144
REMARK   59  A    between atoms: _144  and  _145
REMARK   60  A    between atoms: _151  and  _153
REMARK   61  A    between atoms: _153  and  _154
REMARK   62  A    between atoms: _153  and  _156
REMARK   63  A    between atoms: _156  and  _157
REMARK   64  A    between atoms: _162  and  _164
REMARK   65  A    between atoms: _164  and  _165
REMARK   66  A    between atoms: _164  and  _167
REMARK   67  A    between atoms: _167  and  _168
REMARK   68  A    between atoms: _171  and  _173
REMARK   69  A    between atoms: _173  and  _174
REMARK   70  A    between atoms: _173  and  _176
REMARK   71  A    between atoms: _176  and  _177
REMARK   72  A    between atoms: _179  and  _181
REMARK   73  A    between atoms: _181  and  _182
REMARK   74  A    between atoms: _181  and  _184
REMARK   75  A    between atoms: _184  and  _185
REMARK   76  A    between atoms: _190  and  _191
REMARK   77  A    between atoms: _193  and  _195
REMARK   78  A    between atoms: _195  and  _196
REMARK   79  A    between atoms: _195  and  _198
REMARK   80  A    between atoms: _198  and  _199
REMARK   81  A    between atoms: _209  and  _211
REMARK   82  A    between atoms: _211  and  _212
REMARK   83  A    between atoms: _211  and  _214
REMARK   84  A    between atoms: _214  and  _215
REMARK   85  A    between atoms: _217  and  _219
REMARK   86  A    between atoms: _219  and  _220
REMARK   87  A    between atoms: _219  and  _222
REMARK   88  A    between atoms: _222  and  _223
REMARK   89  A    between atoms: _233  and  _235
REMARK   90  A    between atoms: _235  and  _236
REMARK   91  A    between atoms: _235  and  _238
REMARK   92  A    between atoms: _238  and  _239
REMARK   93  A    between atoms: _244  and  _245
REMARK   94  A    between atoms: _247  and  _249
REMARK   95  A    between atoms: _249  and  _250
REMARK   96  A    between atoms: _249  and  _252
REMARK   97  A    between atoms: _252  and  _253
REMARK   98  A    between atoms: _256  and  _258
REMARK   99  A    between atoms: _258  and  _259
REMARK  100  A    between atoms: _261  and  _263
REMARK  101  A    between atoms: _263  and  _264
REMARK  102  A    between atoms: _263  and  _266
REMARK  103  A    between atoms: _266  and  _267
REMARK  104  A    between atoms: _272  and  _273
REMARK  105  A    between atoms: _275  and  _277
REMARK  106  A    between atoms: _277  and  _278
REMARK  107  A    between atoms: _277  and  _280
REMARK  108  A    between atoms: _280  and  _281
REMARK  109  A    between atoms: _286  and  _287
REMARK  110  A    between atoms: _289  and  _291
REMARK  111  A    between atoms: _291  and  _292
REMARK  112  A    between atoms: _291  and  _294
REMARK  113  A    between atoms: _294  and  _295
REMARK  114  A    between atoms: _298  and  _300
REMARK  115  A    between atoms: _300  and  _301
REMARK  116  A    between atoms: _300  and  _303
REMARK  117  A    between atoms: _303  and  _304
REMARK  118  A    between atoms: _307  and  _309
REMARK  119  A    between atoms: _309  and  _310
REMARK  120  A    between atoms: _309  and  _312
REMARK  121  A    between atoms: _312  and  _313
REMARK  122  A    between atoms: _313  and  _314
REMARK  123  A    between atoms: _319  and  _321
REMARK  124  A    between atoms: _321  and  _322
REMARK  125  A    between atoms: _324  and  _326
REMARK  126  A    between atoms: _326  and  _327
REMARK  127  A    between atoms: _329  and  _331
REMARK  128  A    between atoms: _331  and  _332
REMARK  129  A    between atoms: _331  and  _334
REMARK  130  A    between atoms: _334  and  _335
REMARK  131  A    between atoms: _335  and  _336
REMARK  132  A    between atoms: _338  and  _340
REMARK  133  A    between atoms: _340  and  _341
REMARK  134  A    between atoms: _340  and  _343
REMARK  135  A    between atoms: _343  and  _344
REMARK  136  A    between atoms: _346  and  _348
REMARK  137  A    between atoms: _348  and  _349
REMARK  138  A    between atoms: _348  and  _351
REMARK  139  A    between atoms: _351  and  _352
REMARK  140  A    between atoms: _355  and  _357
REMARK  141  A    between atoms: _357  and  _358
REMARK  142  A    between atoms: _357  and  _360
REMARK  143  A    between atoms: _360  and  _361
REMARK  144  A    between atoms: _371  and  _373
REMARK  145  A    between atoms: _373  and  _374
REMARK  146  A    between atoms: _377  and  _379
REMARK  147  A    between atoms: _379  and  _380
REMARK  148  A    between atoms: _379  and  _382
REMARK  149  A    between atoms: _382  and  _383
REMARK  150  A    between atoms: _386  and  _388
REMARK  151  A    between atoms: _388  and  _389
REMARK  152  A    between atoms: _388  and  _391
REMARK  153  A    between atoms: _391  and  _392
REMARK  154  A    between atoms: _392  and  _393
REMARK  155  A    between atoms: _393  and  _394
REMARK                            x       y       z     vdW  Elec       q    Type
REMARK                         _______ _______ _______ _____ _____    ______ ____
ROOT
ATOM      1  C   TRP A   3     -30.432 -23.601 -46.964  0.00  0.00    +0.241 C 
ATOM      2  O   TRP A   3     -31.046 -24.129 -46.025  0.00  0.00    -0.273 OA
ATOM      3  N   ALA A   4     -30.177 -22.301 -47.027  0.00  0.00    -0.297 N 
ATOM      4  H   ALA A   4     -29.682 -21.914 -47.856  0.00  0.00    +0.150 HD
ENDROOT
BRANCH   3   5
ATOM      5  CA  ALA A   4     -30.585 -21.404 -45.943  0.00  0.00    +0.149 C 
ATOM      6  CB  ALA A   4     -29.341 -20.888 -45.185  0.00  0.00    +0.031 C 
BRANCH   5   7
ATOM      7  C   ALA A   4     -31.498 -20.254 -46.392  0.00  0.00    +0.241 C 
ATOM      8  O   ALA A   4     -31.280 -19.096 -46.010  0.00  0.00    -0.273 OA
ATOM      9  N   ASP A   5     -32.534 -20.587 -47.176  0.00  0.00    -0.297 N 
ATOM     10  H   ASP A   5     -32.663 -21.592 -47.412  0.00  0.00    +0.150 HD
BRANCH   9  11
ATOM     11  CA  ASP A   5     -33.512 -19.609 -47.730  0.00  0.00    +0.160 C 
BRANCH  11  12
ATOM     12  C   ASP A   5     -33.989 -18.575 -46.711  0.00  0.00    +0.241 C 
ATOM     13  N   ARG A   6     -34.241 -19.030 -45.491  0.00  0.00    -0.298 N 
ATOM     14  H   ARG A   6     -34.222 -20.055 -45.319  0.00  0.00    +0.150 HD
ATOM     15  O   ASP A   5     -34.135 -17.390 -47.035  0.00  0.00    -0.273 OA
BRANCH  13  16
ATOM     16  CA  ARG A   6     -34.541 -18.137 -44.394  0.00  0.00    +0.137 C 
BRANCH  16  17
ATOM     17  C   ARG A   6     -33.346 -18.210 -43.452  0.00  0.00    +0.227 C 
ATOM     18  O   ARG A   6     -33.327 -19.046 -42.555  0.00  0.00    -0.286 OA
ENDBRANCH  16  17
BRANCH  16  19
ATOM     19  CB  ARG A   6     -35.851 -18.565 -43.724  0.00  0.00    +0.031 C 
BRANCH  19  20
ATOM     20  CG  ARG A   6     -37.061 -18.379 -44.652  0.00  0.00    +0.045 C 
BRANCH  20  21
ATOM     21  CD  ARG A   6     -38.337 -18.981 -44.078  0.00  0.00    +0.174 C 
BRANCH  21  22
ATOM     22  NE  ARG A   6     -38.040 -20.248 -43.434  0.00  0.00    -0.265 N 
ATOM     23  HE  ARG A   6     -37.931 -20.254 -42.400  0.00  0.00    +0.259 HD
ATOM     24  CZ  ARG A   6     -37.899 -21.400 -44.080  0.00  0.00    +0.342 C 
ATOM     25  NH2 ARG A   6     -37.601 -22.501 -43.404  0.00  0.00    -0.292 N 
ATOM     26 HH21 ARG A   6     -37.479 -22.460 -42.372  0.00  0.00    +0.255 HD
ATOM     27 HH22 ARG A   6     -37.490 -23.405 -43.906  0.00  0.00    +0.255 HD
ATOM     28  NH1 ARG A   6     -38.050 -21.448 -45.399  0.00  0.00    -0.292 N 
ATOM     29 HH11 ARG A   6     -37.939 -22.351 -45.903  0.00  0.00    +0.255 HD
ATOM     30 HH12 ARG A   6     -38.279 -20.582 -45.928  0.00  0.00    +0.255 HD
ENDBRANCH  21  22
ENDBRANCH  20  21
ENDBRANCH  19  20
ENDBRANCH  16  19
ENDBRANCH  13  16
ENDBRANCH  11  12
BRANCH  11  31
ATOM     31  CB  ASP A   5     -34.736 -20.322 -48.343  0.00  0.00    +0.143 C 
BRANCH  31  32
ATOM     32  CG  ASP A   5     -34.375 -21.202 -49.544  0.00  0.00    +0.367 C 
ATOM     33  OD2 ASP A   5     -33.258 -21.773 -49.565  0.00  0.00    -0.246 OA
ATOM     34  OD1 ASP A   5     -35.216 -21.336 -50.464  0.00  0.00    -0.246 OA
ENDBRANCH  31  32
ENDBRANCH  11  31
ENDBRANCH   9  11
ENDBRANCH   5   7
ENDBRANCH   3   5
BRANCH   1  35
ATOM     35  CA  TRP A   3     -29.960 -24.430 -48.137  0.00  0.00    +0.153 C 
BRANCH  35  37
ATOM     36  C   ILE A   2     -28.469 -26.314 -47.756  0.00  0.00    +0.241 C 
ATOM     37  N   TRP A   3     -29.696 -25.805 -47.726  0.00  0.00    -0.297 N 
ATOM     38  H   TRP A   3     -30.486 -26.400 -47.403  0.00  0.00    +0.150 HD
ATOM     39  O   ILE A   2     -27.493 -25.676 -48.131  0.00  0.00    -0.273 OA
BRANCH  36  40
ATOM     40  CA  ILE A   2     -28.317 -27.777 -47.338  0.00  0.00    +0.148 C 
BRANCH  40  42
ATOM     41  C   SER A   1     -28.423 -29.289 -49.252  0.00  0.00    +0.241 C 
ATOM     42  N   ILE A   2     -27.719 -28.483 -48.464  0.00  0.00    -0.297 N 
ATOM     43  H   ILE A   2     -26.706 -28.351 -48.658  0.00  0.00    +0.150 HD
ATOM     44  O   SER A   1     -29.601 -29.611 -49.037  0.00  0.00    -0.274 OA
BRANCH  41  45
ATOM     45  CA  SER A   1     -27.675 -29.816 -50.463  0.00  0.00    +0.174 C 
BRANCH  45  46
ATOM     46  N   SER A   1     -27.809 -31.249 -50.661  0.00  0.00    -0.236 NA
ATOM     47  H   SER A   1     -28.753 -31.674 -50.765  0.00  0.00    +0.142 HD
ENDBRANCH  45  46
BRANCH  45  48
ATOM     48  CB  SER A   1     -28.104 -29.075 -51.731  0.00  0.00    +0.163 C 
BRANCH  48  49
ATOM     49  OG  SER A   1     -27.418 -29.580 -52.872  0.00  0.00    -0.380 OA
ATOM     50  H   SER A   1     -27.712 -29.086 -53.678  0.00  0.00    +0.211 HD
ENDBRANCH  48  49
ENDBRANCH  45  48
ENDBRANCH  41  45
ENDBRANCH  40  42
BRANCH  40  51
ATOM     51  CB  ILE A   2     -27.471 -27.907 -46.030  0.00  0.00    +0.027 C 
ATOM     52  CG2 ILE A   2     -28.237 -27.350 -44.825  0.00  0.00    +0.002 C 
BRANCH  51  53
ATOM     53  CG1 ILE A   2     -27.056 -29.376 -45.777  0.00  0.00    +0.002 C 
ATOM     54  CD1 ILE A   2     -28.247 -30.394 -45.694  0.00  0.00    +0.000 C 
ENDBRANCH  51  53
ENDBRANCH  40  51
ENDBRANCH  36  40
ENDBRANCH  35  37
BRANCH  35  55
ATOM     55  CB  TRP A   3     -31.010 -24.379 -49.251  0.00  0.00    +0.057 C 
BRANCH  55  56
ATOM     56  CG  TRP A   3     -30.616 -25.137 -50.476  0.00  0.00    -0.002 A 
ATOM     57  CD1 TRP A   3     -31.050 -26.391 -50.849  0.00  0.00    +0.068 A 
ATOM     58  NE1 TRP A   3     -30.455 -26.756 -52.042  0.00  0.00    -0.352 N 
ATOM     59  CE2 TRP A   3     -29.622 -25.746 -52.456  0.00  0.00    +0.056 A 
ATOM     60  CZ2 TRP A   3     -28.818 -25.656 -53.592  0.00  0.00    +0.017 A 
ATOM     61  CH2 TRP A   3     -28.073 -24.518 -53.761  0.00  0.00    +0.001 A 
ATOM     62  CZ3 TRP A   3     -28.118 -23.465 -52.827  0.00  0.00    +0.000 A 
ATOM     63  CE3 TRP A   3     -28.928 -23.550 -51.687  0.00  0.00    +0.001 A 
ATOM     64  HE1 TRP A   3     -30.613 -27.652 -52.545  0.00  0.00    +0.166 HD
ATOM     65  CD2 TRP A   3     -29.700 -24.707 -51.495  0.00  0.00    +0.013 A 
ENDBRANCH  55  56
ENDBRANCH  35  55
ENDBRANCH   1  35
TORSDOF 24
REMARK  Name = ../refined-set-2016/4azc/4azc_pocket.pdb
REMARK  155 active torsions:
REMARK  status: ('A' for Active; 'I' for Inactive)
REMARK    1  A    between atoms: _1  and  _3
REMARK    2  A    between atoms: _3  and  _4
REMARK    3  A    between atoms: _3  and  _6
REMARK    4  A    between atoms: _6  and  _7
REMARK    5  A    between atoms: _10  and  _12
REMARK    6  A    between atoms: _12  and  _13
REMARK    7  A    between atoms: _12  and  _15
REMARK    8  A    between atoms: _15  and  _16
REMARK    9  A    between atoms: _16  and  _17
REMARK   10  A    between atoms: _17  and  _18
REMARK   11  A    between atoms: _27  and  _29
REMARK   12  A    between atoms: _29  and  _30
REMARK   13  A    between atoms: _29  and  _32
REMARK   14  A    between atoms: _32  and  _33
REMARK   15  A    between atoms: _36  and  _38
REMARK   16  A    between atoms: _38  and  _39
REMARK   17  A    between atoms: _38  and  _41
REMARK   18  A    between atoms: _41  and  _42
REMARK   19  A    between atoms: _47  and  _49
REMARK   20  A    between atoms: _49  and  _50
REMARK   21  A    between atoms: _49  and  _52
REMARK   22  A    between atoms: _52  and  _53
REMARK   23  A    between atoms: _56  and  _58
REMARK   24  A    between atoms: _58  and  _59
REMARK   25  A    between atoms: _58  and  _61
REMARK   26  A    between atoms: _61  and  _62
REMARK   27  A    between atoms: _67  and  _69
REMARK   28  A    between atoms: _69  and  _70
REMARK   29  A    between atoms: _69  and  _72
REMARK   30  A    between atoms: _72  and  _73
REMARK   31  A    between atoms: _78  and  _80
REMARK   32  A    between atoms: _80  and  _81
REMARK   33  A    between atoms: _80  and  _83
REMARK   34  A    between atoms: _83  and  _84
REMARK   35  A    between atoms: _89  and  _91
REMARK   36  A    between atoms: _91  and  _92
REMARK   37  A    between atoms: _94  and  _96
REMARK   38  A    between atoms: _96  and  _97
REMARK   39  A    between atoms: _96  and  _99
REMARK   40  A    between atoms: _99  and  _100
REMARK   41  A    between atoms: _103  and  _105
REMARK   42  A    between atoms: _105  and  _106
REMARK   43  A    between atoms: _105  and  _108
REMARK   44  A    between atoms: _108  and  _109
REMARK   45  A    between atoms: _112  and  _114
REMARK   46  A    between atoms: _114  and  _115
REMARK   47  A    between atoms: _114  and  _117
REMARK   48  A    between atoms: _117  and  _118
REMARK   49  A    between atoms: _118  and  _119
REMARK   50  A    between atoms: _122  and  _124
REMARK   51  A    between atoms: _124  and  _125
REMARK   52  A    between atoms: _124  and  _127
REMARK   53  A    between atoms: _127  and  _128
REMARK   54  A    between atoms: _133  and  _135
REMARK   55  A    between atoms: _135  and  _136
REMARK   56  A    between atoms: _139  and  _141
REMARK   57  A    between atoms: _141  and  _142
REMARK   58  A    between atoms: _141  and  _144
REMARK   59  A    between atoms: _144  and  _145
REMARK   60  A    between atoms: _151  and  _153
REMARK   61  A    between atoms: _153  and  _154
REMARK   62  A    between atoms: _153  and  _156
REMARK   63  A    between atoms: _156  and  _157
REMARK   64  A    between atoms: _162  and  _164
REMARK   65  A    between atoms: _164  and  _165
REMARK   66  A    between atoms: _164  and  _167
REMARK   67  A    between atoms: _167  and  _168
REMARK   68  A    between atoms: _171  and  _173
REMARK   69  A    between atoms: _173  and  _174
REMARK   70  A    between atoms: _173  and  _176
REMARK   71  A    between atoms: _176  and  _177
REMARK   72  A    between atoms: _179  and  _181
REMARK   73  A    between atoms: _181  and  _182
REMARK   74  A    between atoms: _181  and  _184
REMARK   75  A    between atoms: _184  and  _185
REMARK   76  A    between atoms: _190  and  _191
REMARK   77  A    between atoms: _193  and  _195
REMARK   78  A    between atoms: _195  and  _196
REMARK   79  A    between atoms: _195  and  _198
REMARK   80  A    between atoms: _198  and  _199
REMARK   81  A    between atoms: _209  and  _211
REMARK   82  A    between atoms: _211  and  _212
REMARK   83  A    between atoms: _211  and  _214
REMARK   84  A    between atoms: _214  and  _215
REMARK   85  A    between atoms: _217  and  _219
REMARK   86  A    between atoms: _219  and  _220
REMARK   87  A    between atoms: _219  and  _222
REMARK   88  A    between atoms: _222  and  _223
REMARK   89  A    between atoms: _233  and  _235
REMARK   90  A    between atoms: _235  and  _236
REMARK   91  A    between atoms: _235  and  _238
REMARK   92  A    between atoms: _238  and  _239
REMARK   93  A    between atoms: _244  and  _245
REMARK   94  A    between atoms: _247  and  _249
REMARK   95  A    between atoms: _249  and  _250
REMARK   96  A    between atoms: _249  and  _252
REMARK   97  A    between atoms: _252  and  _253
REMARK   98  A    between atoms: _256  and  _258
REMARK   99  A    between atoms: _258  and  _259
REMARK  100  A    between atoms: _261  and  _263
REMARK  101  A    between atoms: _263  and  _264
REMARK  102  A    between atoms: _263  and  _266
REMARK  103  A    between atoms: _266  and  _267
REMARK  104  A    between atoms: _272  and  _273
REMARK  105  A    between atoms: _275  and  _277
REMARK  106  A    between atoms: _277  and  _278
REMARK  107  A    between atoms: _277  and  _280
REMARK  108  A    between atoms: _280  and  _281
REMARK  109  A    between atoms: _286  and  _287
REMARK  110  A    between atoms: _289  and  _291
REMARK  111  A    between atoms: _291  and  _292
REMARK  112  A    between atoms: _291  and  _294
REMARK  113  A    between atoms: _294  and  _295
REMARK  114  A    between atoms: _298  and  _300
REMARK  115  A    between atoms: _300  and  _301
REMARK  116  A    between atoms: _300  and  _303
REMARK  117  A    between atoms: _303  and  _304
REMARK  118  A    between atoms: _307  and  _309
REMARK  119  A    between atoms: _309  and  _310
REMARK  120  A    between atoms: _309  and  _312
REMARK  121  A    between atoms: _312  and  _313
REMARK  122  A    between atoms: _313  and  _314
REMARK  123  A    between atoms: _319  and  _321
REMARK  124  A    between atoms: _321  and  _322
REMARK  125  A    between atoms: _324  and  _326
REMARK  126  A    between atoms: _326  and  _327
REMARK  127  A    between atoms: _329  and  _331
REMARK  128  A    between atoms: _331  and  _332
REMARK  129  A    between atoms: _331  and  _334
REMARK  130  A    between atoms: _334  and  _335
REMARK  131  A    between atoms: _335  and  _336
REMARK  132  A    between atoms: _338  and  _340
REMARK  133  A    between atoms: _340  and  _341
REMARK  134  A    between atoms: _340  and  _343
REMARK  135  A    between atoms: _343  and  _344
REMARK  136  A    between atoms: _346  and  _348
REMARK  137  A    between atoms: _348  and  _349
REMARK  138  A    between atoms: _348  and  _351
REMARK  139  A    between atoms: _351  and  _352
REMARK  140  A    between atoms: _355  and  _357
REMARK  141  A    between atoms: _357  and  _358
REMARK  142  A    between atoms: _357  and  _360
REMARK  143  A    between atoms: _360  and  _361
REMARK  144  A    between atoms: _371  and  _373
REMARK  145  A    between atoms: _373  and  _374
REMARK  146  A    between atoms: _377  and  _379
REMARK  147  A    between atoms: _379  and  _380
REMARK  148  A    between atoms: _379  and  _382
REMARK  149  A    between atoms: _382  and  _383
REMARK  150  A    between atoms: _386  and  _388
REMARK  151  A    between atoms: _388  and  _389
REMARK  152  A    between atoms: _388  and  _391
REMARK  153  A    between atoms: _391  and  _392
REMARK  154  A    between atoms: _392  and  _393
REMARK  155  A    between atoms: _393  and  _394
REMARK                            x       y       z     vdW  Elec       q    Type
REMARK                         _______ _______ _______ _____ _____    ______ ____
ROOT
ATOM      1 MG   UNL     1     -29.269 -32.301 -53.492  0.00  0.00    +0.000 Mg
ENDROOT
TORSDOF 0
REMARK  Name = ../refined-set-2016/4azc/4azc_pocket.pdb
REMARK  155 active torsions:
REMARK  status: ('A' for Active; 'I' for Inactive)
REMARK    1  A    between atoms: _1  and  _3
REMARK    2  A    between atoms: _3  and  _4
REMARK    3  A    between atoms: _3  and  _6
REMARK    4  A    between atoms: _6  and  _7
REMARK    5  A    between atoms: _10  and  _12
REMARK    6  A    between atoms: _12  and  _13
REMARK    7  A    between atoms: _12  and  _15
REMARK    8  A    between atoms: _15  and  _16
REMARK    9  A    between atoms: _16  and  _17
REMARK   10  A    between atoms: _17  and  _18
REMARK   11  A    between atoms: _27  and  _29
REMARK   12  A    between atoms: _29  and  _30
REMARK   13  A    between atoms: _29  and  _32
REMARK   14  A    between atoms: _32  and  _33
REMARK   15  A    between atoms: _36  and  _38
REMARK   16  A    between atoms: _38  and  _39
REMARK   17  A    between atoms: _38  and  _41
REMARK   18  A    between atoms: _41  and  _42
REMARK   19  A    between atoms: _47  and  _49
REMARK   20  A    between atoms: _49  and  _50
REMARK   21  A    between atoms: _49  and  _52
REMARK   22  A    between atoms: _52  and  _53
REMARK   23  A    between atoms: _56  and  _58
REMARK   24  A    between atoms: _58  and  _59
REMARK   25  A    between atoms: _58  and  _61
REMARK   26  A    between atoms: _61  and  _62
REMARK   27  A    between atoms: _67  and  _69
REMARK   28  A    between atoms: _69  and  _70
REMARK   29  A    between atoms: _69  and  _72
REMARK   30  A    between atoms: _72  and  _73
REMARK   31  A    between atoms: _78  and  _80
REMARK   32  A    between atoms: _80  and  _81
REMARK   33  A    between atoms: _80  and  _83
REMARK   34  A    between atoms: _83  and  _84
REMARK   35  A    between atoms: _89  and  _91
REMARK   36  A    between atoms: _91  and  _92
REMARK   37  A    between atoms: _94  and  _96
REMARK   38  A    between atoms: _96  and  _97
REMARK   39  A    between atoms: _96  and  _99
REMARK   40  A    between atoms: _99  and  _100
REMARK   41  A    between atoms: _103  and  _105
REMARK   42  A    between atoms: _105  and  _106
REMARK   43  A    between atoms: _105  and  _108
REMARK   44  A    between atoms: _108  and  _109
REMARK   45  A    between atoms: _112  and  _114
REMARK   46  A    between atoms: _114  and  _115
REMARK   47  A    between atoms: _114  and  _117
REMARK   48  A    between atoms: _117  and  _118
REMARK   49  A    between atoms: _118  and  _119
REMARK   50  A    between atoms: _122  and  _124
REMARK   51  A    between atoms: _124  and  _125
REMARK   52  A    between atoms: _124  and  _127
REMARK   53  A    between atoms: _127  and  _128
REMARK   54  A    between atoms: _133  and  _135
REMARK   55  A    between atoms: _135  and  _136
REMARK   56  A    between atoms: _139  and  _141
REMARK   57  A    between atoms: _141  and  _142
REMARK   58  A    between atoms: _141  and  _144
REMARK   59  A    between atoms: _144  and  _145
REMARK   60  A    between atoms: _151  and  _153
REMARK   61  A    between atoms: _153  and  _154
REMARK   62  A    between atoms: _153  and  _156
REMARK   63  A    between atoms: _156  and  _157
REMARK   64  A    between atoms: _162  and  _164
REMARK   65  A    between atoms: _164  and  _165
REMARK   66  A    between atoms: _164  and  _167
REMARK   67  A    between atoms: _167  and  _168
REMARK   68  A    between atoms: _171  and  _173
REMARK   69  A    between atoms: _173  and  _174
REMARK   70  A    between atoms: _173  and  _176
REMARK   71  A    between atoms: _176  and  _177
REMARK   72  A    between atoms: _179  and  _181
REMARK   73  A    between atoms: _181  and  _182
REMARK   74  A    between atoms: _181  and  _184
REMARK   75  A    between atoms: _184  and  _185
REMARK   76  A    between atoms: _190  and  _191
REMARK   77  A    between atoms: _193  and  _195
REMARK   78  A    between atoms: _195  and  _196
REMARK   79  A    between atoms: _195  and  _198
REMARK   80  A    between atoms: _198  and  _199
REMARK   81  A    between atoms: _209  and  _211
REMARK   82  A    between atoms: _211  and  _212
REMARK   83  A    between atoms: _211  and  _214
REMARK   84  A    between atoms: _214  and  _215
REMARK   85  A    between atoms: _217  and  _219
REMARK   86  A    between atoms: _219  and  _220
REMARK   87  A    between atoms: _219  and  _222
REMARK   88  A    between atoms: _222  and  _223
REMARK   89  A    between atoms: _233  and  _235
REMARK   90  A    between atoms: _235  and  _236
REMARK   91  A    between atoms: _235  and  _238
REMARK   92  A    between atoms: _238  and  _239
REMARK   93  A    between atoms: _244  and  _245
REMARK   94  A    between atoms: _247  and  _249
REMARK   95  A    between atoms: _249  and  _250
REMARK   96  A    between atoms: _249  and  _252
REMARK   97  A    between atoms: _252  and  _253
REMARK   98  A    between atoms: _256  and  _258
REMARK   99  A    between atoms: _258  and  _259
REMARK  100  A    between atoms: _261  and  _263
REMARK  101  A    between atoms: _263  and  _264
REMARK  102  A    between atoms: _263  and  _266
REMARK  103  A    between atoms: _266  and  _267
REMARK  104  A    between atoms: _272  and  _273
REMARK  105  A    between atoms: _275  and  _277
REMARK  106  A    between atoms: _277  and  _278
REMARK  107  A    between atoms: _277  and  _280
REMARK  108  A    between atoms: _280  and  _281
REMARK  109  A    between atoms: _286  and  _287
REMARK  110  A    between atoms: _289  and  _291
REMARK  111  A    between atoms: _291  and  _292
REMARK  112  A    between atoms: _291  and  _294
REMARK  113  A    between atoms: _294  and  _295
REMARK  114  A    between atoms: _298  and  _300
REMARK  115  A    between atoms: _300  and  _301
REMARK  116  A    between atoms: _300  and  _303
REMARK  117  A    between atoms: _303  and  _304
REMARK  118  A    between atoms: _307  and  _309
REMARK  119  A    between atoms: _309  and  _310
REMARK  120  A    between atoms: _309  and  _312
REMARK  121  A    between atoms: _312  and  _313
REMARK  122  A    between atoms: _313  and  _314
REMARK  123  A    between atoms: _319  and  _321
REMARK  124  A    between atoms: _321  and  _322
REMARK  125  A    between atoms: _324  and  _326
REMARK  126  A    between atoms: _326  and  _327
REMARK  127  A    between atoms: _329  and  _331
REMARK  128  A    between atoms: _331  and  _332
REMARK  129  A    between atoms: _331  and  _334
REMARK  130  A    between atoms: _334  and  _335
REMARK  131  A    between atoms: _335  and  _336
REMARK  132  A    between atoms: _338  and  _340
REMARK  133  A    between atoms: _340  and  _341
REMARK  134  A    between atoms: _340  and  _343
REMARK  135  A    between atoms: _343  and  _344
REMARK  136  A    between atoms: _346  and  _348
REMARK  137  A    between atoms: _348  and  _349
REMARK  138  A    between atoms: _348  and  _351
REMARK  139  A    between atoms: _351  and  _352
REMARK  140  A    between atoms: _355  and  _357
REMARK  141  A    between atoms: _357  and  _358
REMARK  142  A    between atoms: _357  and  _360
REMARK  143  A    between atoms: _360  and  _361
REMARK  144  A    between atoms: _371  and  _373
REMARK  145  A    between atoms: _373  and  _374
REMARK  146  A    between atoms: _377  and  _379
REMARK  147  A    between atoms: _379  and  _380
REMARK  148  A    between atoms: _379  and  _382
REMARK  149  A    between atoms: _382  and  _383
REMARK  150  A    between atoms: _386  and  _388
REMARK  151  A    between atoms: _388  and  _389
REMARK  152  A    between atoms: _388  and  _391
REMARK  153  A    between atoms: _391  and  _392
REMARK  154  A    between atoms: _392  and  _393
REMARK  155  A    between atoms: _393  and  _394
REMARK                            x       y       z     vdW  Elec       q    Type
REMARK                         _______ _______ _______ _____ _____    ______ ____
ROOT
ATOM      1  O   HOH     1     -26.510 -25.969 -50.772  0.00  0.00    +0.000 OA
ENDROOT
TORSDOF 0
REMARK  Name = ../refined-set-2016/4azc/4azc_pocket.pdb
REMARK  155 active torsions:
REMARK  status: ('A' for Active; 'I' for Inactive)
REMARK    1  A    between atoms: _1  and  _3
REMARK    2  A    between atoms: _3  and  _4
REMARK    3  A    between atoms: _3  and  _6
REMARK    4  A    between atoms: _6  and  _7
REMARK    5  A    between atoms: _10  and  _12
REMARK    6  A    between atoms: _12  and  _13
REMARK    7  A    between atoms: _12  and  _15
REMARK    8  A    between atoms: _15  and  _16
REMARK    9  A    between atoms: _16  and  _17
REMARK   10  A    between atoms: _17  and  _18
REMARK   11  A    between atoms: _27  and  _29
REMARK   12  A    between atoms: _29  and  _30
REMARK   13  A    between atoms: _29  and  _32
REMARK   14  A    between atoms: _32  and  _33
REMARK   15  A    between atoms: _36  and  _38
REMARK   16  A    between atoms: _38  and  _39
REMARK   17  A    between atoms: _38  and  _41
REMARK   18  A    between atoms: _41  and  _42
REMARK   19  A    between atoms: _47  and  _49
REMARK   20  A    between atoms: _49  and  _50
REMARK   21  A    between atoms: _49  and  _52
REMARK   22  A    between atoms: _52  and  _53
REMARK   23  A    between atoms: _56  and  _58
REMARK   24  A    between atoms: _58  and  _59
REMARK   25  A    between atoms: _58  and  _61
REMARK   26  A    between atoms: _61  and  _62
REMARK   27  A    between atoms: _67  and  _69
REMARK   28  A    between atoms: _69  and  _70
REMARK   29  A    between atoms: _69  and  _72
REMARK   30  A    between atoms: _72  and  _73
REMARK   31  A    between atoms: _78  and  _80
REMARK   32  A    between atoms: _80  and  _81
REMARK   33  A    between atoms: _80  and  _83
REMARK   34  A    between atoms: _83  and  _84
REMARK   35  A    between atoms: _89  and  _91
REMARK   36  A    between atoms: _91  and  _92
REMARK   37  A    between atoms: _94  and  _96
REMARK   38  A    between atoms: _96  and  _97
REMARK   39  A    between atoms: _96  and  _99
REMARK   40  A    between atoms: _99  and  _100
REMARK   41  A    between atoms: _103  and  _105
REMARK   42  A    between atoms: _105  and  _106
REMARK   43  A    between atoms: _105  and  _108
REMARK   44  A    between atoms: _108  and  _109
REMARK   45  A    between atoms: _112  and  _114
REMARK   46  A    between atoms: _114  and  _115
REMARK   47  A    between atoms: _114  and  _117
REMARK   48  A    between atoms: _117  and  _118
REMARK   49  A    between atoms: _118  and  _119
REMARK   50  A    between atoms: _122  and  _124
REMARK   51  A    between atoms: _124  and  _125
REMARK   52  A    between atoms: _124  and  _127
REMARK   53  A    between atoms: _127  and  _128
REMARK   54  A    between atoms: _133  and  _135
REMARK   55  A    between atoms: _135  and  _136
REMARK   56  A    between atoms: _139  and  _141
REMARK   57  A    between atoms: _141  and  _142
REMARK   58  A    between atoms: _141  and  _144
REMARK   59  A    between atoms: _144  and  _145
REMARK   60  A    between atoms: _151  and  _153
REMARK   61  A    between atoms: _153  and  _154
REMARK   62  A    between atoms: _153  and  _156
REMARK   63  A    between atoms: _156  and  _157
REMARK   64  A    between atoms: _162  and  _164
REMARK   65  A    between atoms: _164  and  _165
REMARK   66  A    between atoms: _164  and  _167
REMARK   67  A    between atoms: _167  and  _168
REMARK   68  A    between atoms: _171  and  _173
REMARK   69  A    between atoms: _173  and  _174
REMARK   70  A    between atoms: _173  and  _176
REMARK   71  A    between atoms: _176  and  _177
REMARK   72  A    between atoms: _179  and  _181
REMARK   73  A    between atoms: _181  and  _182
REMARK   74  A    between atoms: _181  and  _184
REMARK   75  A    between atoms: _184  and  _185
REMARK   76  A    between atoms: _190  and  _191
REMARK   77  A    between atoms: _193  and  _195
REMARK   78  A    between atoms: _195  and  _196
REMARK   79  A    between atoms: _195  and  _198
REMARK   80  A    between atoms: _198  and  _199
REMARK   81  A    between atoms: _209  and  _211
REMARK   82  A    between atoms: _211  and  _212
REMARK   83  A    between atoms: _211  and  _214
REMARK   84  A    between atoms: _214  and  _215
REMARK   85  A    between atoms: _217  and  _219
REMARK   86  A    between atoms: _219  and  _220
REMARK   87  A    between atoms: _219  and  _222
REMARK   88  A    between atoms: _222  and  _223
REMARK   89  A    between atoms: _233  and  _235
REMARK   90  A    between atoms: _235  and  _236
REMARK   91  A    between atoms: _235  and  _238
REMARK   92  A    between atoms: _238  and  _239
REMARK   93  A    between atoms: _244  and  _245
REMARK   94  A    between atoms: _247  and  _249
REMARK   95  A    between atoms: _249  and  _250
REMARK   96  A    between atoms: _249  and  _252
REMARK   97  A    between atoms: _252  and  _253
REMARK   98  A    between atoms: _256  and  _258
REMARK   99  A    between atoms: _258  and  _259
REMARK  100  A    between atoms: _261  and  _263
REMARK  101  A    between atoms: _263  and  _264
REMARK  102  A    between atoms: _263  and  _266
REMARK  103  A    between atoms: _266  and  _267
REMARK  104  A    between atoms: _272  and  _273
REMARK  105  A    between atoms: _275  and  _277
REMARK  106  A    between atoms: _277  and  _278
REMARK  107  A    between atoms: _277  and  _280
REMARK  108  A    between atoms: _280  and  _281
REMARK  109  A    between atoms: _286  and  _287
REMARK  110  A    between atoms: _289  and  _291
REMARK  111  A    between atoms: _291  and  _292
REMARK  112  A    between atoms: _291  and  _294
REMARK  113  A    between atoms: _294  and  _295
REMARK  114  A    between atoms: _298  and  _300
REMARK  115  A    between atoms: _300  and  _301
REMARK  116  A    between atoms: _300  and  _303
REMARK  117  A    between atoms: _303  and  _304
REMARK  118  A    between atoms: _307  and  _309
REMARK  119  A    between atoms: _309  and  _310
REMARK  120  A    between atoms: _309  and  _312
REMARK  121  A    between atoms: _312  and  _313
REMARK  122  A    between atoms: _313  and  _314
REMARK  123  A    between atoms: _319  and  _321
REMARK  124  A    between atoms: _321  and  _322
REMARK  125  A    between atoms: _324  and  _326
REMARK  126  A    between atoms: _326  and  _327
REMARK  127  A    between atoms: _329  and  _331
REMARK  128  A    between atoms: _331  and  _332
REMARK  129  A    between atoms: _331  and  _334
REMARK  130  A    between atoms: _334  and  _335
REMARK  131  A    between atoms: _335  and  _336
REMARK  132  A    between atoms: _338  and  _340
REMARK  133  A    between atoms: _340  and  _341
REMARK  134  A    between atoms: _340  and  _343
REMARK  135  A    between atoms: _343  and  _344
REMARK  136  A    between atoms: _346  and  _348
REMARK  137  A    between atoms: _348  and  _349
REMARK  138  A    between atoms: _348  and  _351
REMARK  139  A    between atoms: _351  and  _352
REMARK  140  A    between atoms: _355  and  _357
REMARK  141  A    between atoms: _357  and  _358
REMARK  142  A    between atoms: _357  and  _360
REMARK  143  A    between atoms: _360  and  _361
REMARK  144  A    between atoms: _371  and  _373
REMARK  145  A    between atoms: _373  and  _374
REMARK  146  A    between atoms: _377  and  _379
REMARK  147  A    between atoms: _379  and  _380
REMARK  148  A    between atoms: _379  and  _382
REMARK  149  A    between atoms: _382  and  _383
REMARK  150  A    between atoms: _386  and  _388
REMARK  151  A    between atoms: _388  and  _389
REMARK  152  A    between atoms: _388  and  _391
REMARK  153  A    between atoms: _391  and  _392
REMARK  154  A    between atoms: _392  and  _393
REMARK  155  A    between atoms: _393  and  _394
REMARK                            x       y       z     vdW  Elec       q    Type
REMARK                         _______ _______ _______ _____ _____    ______ ____
ROOT
ATOM      1  O   HOH     1     -32.946 -16.256 -52.872  0.00  0.00    +0.000 OA
ENDROOT
TORSDOF 0
REMARK  Name = ../refined-set-2016/4azc/4azc_pocket.pdb
REMARK  155 active torsions:
REMARK  status: ('A' for Active; 'I' for Inactive)
REMARK    1  A    between atoms: _1  and  _3
REMARK    2  A    between atoms: _3  and  _4
REMARK    3  A    between atoms: _3  and  _6
REMARK    4  A    between atoms: _6  and  _7
REMARK    5  A    between atoms: _10  and  _12
REMARK    6  A    between atoms: _12  and  _13
REMARK    7  A    between atoms: _12  and  _15
REMARK    8  A    between atoms: _15  and  _16
REMARK    9  A    between atoms: _16  and  _17
REMARK   10  A    between atoms: _17  and  _18
REMARK   11  A    between atoms: _27  and  _29
REMARK   12  A    between atoms: _29  and  _30
REMARK   13  A    between atoms: _29  and  _32
REMARK   14  A    between atoms: _32  and  _33
REMARK   15  A    between atoms: _36  and  _38
REMARK   16  A    between atoms: _38  and  _39
REMARK   17  A    between atoms: _38  and  _41
REMARK   18  A    between atoms: _41  and  _42
REMARK   19  A    between atoms: _47  and  _49
REMARK   20  A    between atoms: _49  and  _50
REMARK   21  A    between atoms: _49  and  _52
REMARK   22  A    between atoms: _52  and  _53
REMARK   23  A    between atoms: _56  and  _58
REMARK   24  A    between atoms: _58  and  _59
REMARK   25  A    between atoms: _58  and  _61
REMARK   26  A    between atoms: _61  and  _62
REMARK   27  A    between atoms: _67  and  _69
REMARK   28  A    between atoms: _69  and  _70
REMARK   29  A    between atoms: _69  and  _72
REMARK   30  A    between atoms: _72  and  _73
REMARK   31  A    between atoms: _78  and  _80
REMARK   32  A    between atoms: _80  and  _81
REMARK   33  A    between atoms: _80  and  _83
REMARK   34  A    between atoms: _83  and  _84
REMARK   35  A    between atoms: _89  and  _91
REMARK   36  A    between atoms: _91  and  _92
REMARK   37  A    between atoms: _94  and  _96
REMARK   38  A    between atoms: _96  and  _97
REMARK   39  A    between atoms: _96  and  _99
REMARK   40  A    between atoms: _99  and  _100
REMARK   41  A    between atoms: _103  and  _105
REMARK   42  A    between atoms: _105  and  _106
REMARK   43  A    between atoms: _105  and  _108
REMARK   44  A    between atoms: _108  and  _109
REMARK   45  A    between atoms: _112  and  _114
REMARK   46  A    between atoms: _114  and  _115
REMARK   47  A    between atoms: _114  and  _117
REMARK   48  A    between atoms: _117  and  _118
REMARK   49  A    between atoms: _118  and  _119
REMARK   50  A    between atoms: _122  and  _124
REMARK   51  A    between atoms: _124  and  _125
REMARK   52  A    between atoms: _124  and  _127
REMARK   53  A    between atoms: _127  and  _128
REMARK   54  A    between atoms: _133  and  _135
REMARK   55  A    between atoms: _135  and  _136
REMARK   56  A    between atoms: _139  and  _141
REMARK   57  A    between atoms: _141  and  _142
REMARK   58  A    between atoms: _141  and  _144
REMARK   59  A    between atoms: _144  and  _145
REMARK   60  A    between atoms: _151  and  _153
REMARK   61  A    between atoms: _153  and  _154
REMARK   62  A    between atoms: _153  and  _156
REMARK   63  A    between atoms: _156  and  _157
REMARK   64  A    between atoms: _162  and  _164
REMARK   65  A    between atoms: _164  and  _165
REMARK   66  A    between atoms: _164  and  _167
REMARK   67  A    between atoms: _167  and  _168
REMARK   68  A    between atoms: _171  and  _173
REMARK   69  A    between atoms: _173  and  _174
REMARK   70  A    between atoms: _173  and  _176
REMARK   71  A    between atoms: _176  and  _177
REMARK   72  A    between atoms: _179  and  _181
REMARK   73  A    between atoms: _181  and  _182
REMARK   74  A    between atoms: _181  and  _184
REMARK   75  A    between atoms: _184  and  _185
REMARK   76  A    between atoms: _190  and  _191
REMARK   77  A    between atoms: _193  and  _195
REMARK   78  A    between atoms: _195  and  _196
REMARK   79  A    between atoms: _195  and  _198
REMARK   80  A    between atoms: _198  and  _199
REMARK   81  A    between atoms: _209  and  _211
REMARK   82  A    between atoms: _211  and  _212
REMARK   83  A    between atoms: _211  and  _214
REMARK   84  A    between atoms: _214  and  _215
REMARK   85  A    between atoms: _217  and  _219
REMARK   86  A    between atoms: _219  and  _220
REMARK   87  A    between atoms: _219  and  _222
REMARK   88  A    between atoms: _222  and  _223
REMARK   89  A    between atoms: _233  and  _235
REMARK   90  A    between atoms: _235  and  _236
REMARK   91  A    between atoms: _235  and  _238
REMARK   92  A    between atoms: _238  and  _239
REMARK   93  A    between atoms: _244  and  _245
REMARK   94  A    between atoms: _247  and  _249
REMARK   95  A    between atoms: _249  and  _250
REMARK   96  A    between atoms: _249  and  _252
REMARK   97  A    between atoms: _252  and  _253
REMARK   98  A    between atoms: _256  and  _258
REMARK   99  A    between atoms: _258  and  _259
REMARK  100  A    between atoms: _261  and  _263
REMARK  101  A    between atoms: _263  and  _264
REMARK  102  A    between atoms: _263  and  _266
REMARK  103  A    between atoms: _266  and  _267
REMARK  104  A    between atoms: _272  and  _273
REMARK  105  A    between atoms: _275  and  _277
REMARK  106  A    between atoms: _277  and  _278
REMARK  107  A    between atoms: _277  and  _280
REMARK  108  A    between atoms: _280  and  _281
REMARK  109  A    between atoms: _286  and  _287
REMARK  110  A    between atoms: _289  and  _291
REMARK  111  A    between atoms: _291  and  _292
REMARK  112  A    between atoms: _291  and  _294
REMARK  113  A    between atoms: _294  and  _295
REMARK  114  A    between atoms: _298  and  _300
REMARK  115  A    between atoms: _300  and  _301
REMARK  116  A    between atoms: _300  and  _303
REMARK  117  A    between atoms: _303  and  _304
REMARK  118  A    between atoms: _307  and  _309
REMARK  119  A    between atoms: _309  and  _310
REMARK  120  A    between atoms: _309  and  _312
REMARK  121  A    between atoms: _312  and  _313
REMARK  122  A    between atoms: _313  and  _314
REMARK  123  A    between atoms: _319  and  _321
REMARK  124  A    between atoms: _321  and  _322
REMARK  125  A    between atoms: _324  and  _326
REMARK  126  A    between atoms: _326  and  _327
REMARK  127  A    between atoms: _329  and  _331
REMARK  128  A    between atoms: _331  and  _332
REMARK  129  A    between atoms: _331  and  _334
REMARK  130  A    between atoms: _334  and  _335
REMARK  131  A    between atoms: _335  and  _336
REMARK  132  A    between atoms: _338  and  _340
REMARK  133  A    between atoms: _340  and  _341
REMARK  134  A    between atoms: _340  and  _343
REMARK  135  A    between atoms: _343  and  _344
REMARK  136  A    between atoms: _346  and  _348
REMARK  137  A    between atoms: _348  and  _349
REMARK  138  A    between atoms: _348  and  _351
REMARK  139  A    between atoms: _351  and  _352
REMARK  140  A    between atoms: _355  and  _357
REMARK  141  A    between atoms: _357  and  _358
REMARK  142  A    between atoms: _357  and  _360
REMARK  143  A    between atoms: _360  and  _361
REMARK  144  A    between atoms: _371  and  _373
REMARK  145  A    between atoms: _373  and  _374
REMARK  146  A    between atoms: _377  and  _379
REMARK  147  A    between atoms: _379  and  _380
REMARK  148  A    between atoms: _379  and  _382
REMARK  149  A    between atoms: _382  and  _383
REMARK  150  A    between atoms: _386  and  _388
REMARK  151  A    between atoms: _388  and  _389
REMARK  152  A    between atoms: _388  and  _391
REMARK  153  A    between atoms: _391  and  _392
REMARK  154  A    between atoms: _392  and  _393
REMARK  155  A    between atoms: _393  and  _394
REMARK                            x       y       z     vdW  Elec       q    Type
REMARK                         _______ _______ _______ _____ _____    ______ ____
ROOT
ATOM      1  O   HOH     1     -33.236 -15.636 -48.924  0.00  0.00    +0.000 OA
ENDROOT
TORSDOF 0
REMARK  Name = ../refined-set-2016/4azc/4azc_pocket.pdb
REMARK  155 active torsions:
REMARK  status: ('A' for Active; 'I' for Inactive)
REMARK    1  A    between atoms: _1  and  _3
REMARK    2  A    between atoms: _3  and  _4
REMARK    3  A    between atoms: _3  and  _6
REMARK    4  A    between atoms: _6  and  _7
REMARK    5  A    between atoms: _10  and  _12
REMARK    6  A    between atoms: _12  and  _13
REMARK    7  A    between atoms: _12  and  _15
REMARK    8  A    between atoms: _15  and  _16
REMARK    9  A    between atoms: _16  and  _17
REMARK   10  A    between atoms: _17  and  _18
REMARK   11  A    between atoms: _27  and  _29
REMARK   12  A    between atoms: _29  and  _30
REMARK   13  A    between atoms: _29  and  _32
REMARK   14  A    between atoms: _32  and  _33
REMARK   15  A    between atoms: _36  and  _38
REMARK   16  A    between atoms: _38  and  _39
REMARK   17  A    between atoms: _38  and  _41
REMARK   18  A    between atoms: _41  and  _42
REMARK   19  A    between atoms: _47  and  _49
REMARK   20  A    between atoms: _49  and  _50
REMARK   21  A    between atoms: _49  and  _52
REMARK   22  A    between atoms: _52  and  _53
REMARK   23  A    between atoms: _56  and  _58
REMARK   24  A    between atoms: _58  and  _59
REMARK   25  A    between atoms: _58  and  _61
REMARK   26  A    between atoms: _61  and  _62
REMARK   27  A    between atoms: _67  and  _69
REMARK   28  A    between atoms: _69  and  _70
REMARK   29  A    between atoms: _69  and  _72
REMARK   30  A    between atoms: _72  and  _73
REMARK   31  A    between atoms: _78  and  _80
REMARK   32  A    between atoms: _80  and  _81
REMARK   33  A    between atoms: _80  and  _83
REMARK   34  A    between atoms: _83  and  _84
REMARK   35  A    between atoms: _89  and  _91
REMARK   36  A    between atoms: _91  and  _92
REMARK   37  A    between atoms: _94  and  _96
REMARK   38  A    between atoms: _96  and  _97
REMARK   39  A    between atoms: _96  and  _99
REMARK   40  A    between atoms: _99  and  _100
REMARK   41  A    between atoms: _103  and  _105
REMARK   42  A    between atoms: _105  and  _106
REMARK   43  A    between atoms: _105  and  _108
REMARK   44  A    between atoms: _108  and  _109
REMARK   45  A    between atoms: _112  and  _114
REMARK   46  A    between atoms: _114  and  _115
REMARK   47  A    between atoms: _114  and  _117
REMARK   48  A    between atoms: _117  and  _118
REMARK   49  A    between atoms: _118  and  _119
REMARK   50  A    between atoms: _122  and  _124
REMARK   51  A    between atoms: _124  and  _125
REMARK   52  A    between atoms: _124  and  _127
REMARK   53  A    between atoms: _127  and  _128
REMARK   54  A    between atoms: _133  and  _135
REMARK   55  A    between atoms: _135  and  _136
REMARK   56  A    between atoms: _139  and  _141
REMARK   57  A    between atoms: _141  and  _142
REMARK   58  A    between atoms: _141  and  _144
REMARK   59  A    between atoms: _144  and  _145
REMARK   60  A    between atoms: _151  and  _153
REMARK   61  A    between atoms: _153  and  _154
REMARK   62  A    between atoms: _153  and  _156
REMARK   63  A    between atoms: _156  and  _157
REMARK   64  A    between atoms: _162  and  _164
REMARK   65  A    between atoms: _164  and  _165
REMARK   66  A    between atoms: _164  and  _167
REMARK   67  A    between atoms: _167  and  _168
REMARK   68  A    between atoms: _171  and  _173
REMARK   69  A    between atoms: _173  and  _174
REMARK   70  A    between atoms: _173  and  _176
REMARK   71  A    between atoms: _176  and  _177
REMARK   72  A    between atoms: _179  and  _181
REMARK   73  A    between atoms: _181  and  _182
REMARK   74  A    between atoms: _181  and  _184
REMARK   75  A    between atoms: _184  and  _185
REMARK   76  A    between atoms: _190  and  _191
REMARK   77  A    between atoms: _193  and  _195
REMARK   78  A    between atoms: _195  and  _196
REMARK   79  A    between atoms: _195  and  _198
REMARK   80  A    between atoms: _198  and  _199
REMARK   81  A    between atoms: _209  and  _211
REMARK   82  A    between atoms: _211  and  _212
REMARK   83  A    between atoms: _211  and  _214
REMARK   84  A    between atoms: _214  and  _215
REMARK   85  A    between atoms: _217  and  _219
REMARK   86  A    between atoms: _219  and  _220
REMARK   87  A    between atoms: _219  and  _222
REMARK   88  A    between atoms: _222  and  _223
REMARK   89  A    between atoms: _233  and  _235
REMARK   90  A    between atoms: _235  and  _236
REMARK   91  A    between atoms: _235  and  _238
REMARK   92  A    between atoms: _238  and  _239
REMARK   93  A    between atoms: _244  and  _245
REMARK   94  A    between atoms: _247  and  _249
REMARK   95  A    between atoms: _249  and  _250
REMARK   96  A    between atoms: _249  and  _252
REMARK   97  A    between atoms: _252  and  _253
REMARK   98  A    between atoms: _256  and  _258
REMARK   99  A    between atoms: _258  and  _259
REMARK  100  A    between atoms: _261  and  _263
REMARK  101  A    between atoms: _263  and  _264
REMARK  102  A    between atoms: _263  and  _266
REMARK  103  A    between atoms: _266  and  _267
REMARK  104  A    between atoms: _272  and  _273
REMARK  105  A    between atoms: _275  and  _277
REMARK  106  A    between atoms: _277  and  _278
REMARK  107  A    between atoms: _277  and  _280
REMARK  108  A    between atoms: _280  and  _281
REMARK  109  A    between atoms: _286  and  _287
REMARK  110  A    between atoms: _289  and  _291
REMARK  111  A    between atoms: _291  and  _292
REMARK  112  A    between atoms: _291  and  _294
REMARK  113  A    between atoms: _294  and  _295
REMARK  114  A    between atoms: _298  and  _300
REMARK  115  A    between atoms: _300  and  _301
REMARK  116  A    between atoms: _300  and  _303
REMARK  117  A    between atoms: _303  and  _304
REMARK  118  A    between atoms: _307  and  _309
REMARK  119  A    between atoms: _309  and  _310
REMARK  120  A    between atoms: _309  and  _312
REMARK  121  A    between atoms: _312  and  _313
REMARK  122  A    between atoms: _313  and  _314
REMARK  123  A    between atoms: _319  and  _321
REMARK  124  A    between atoms: _321  and  _322
REMARK  125  A    between atoms: _324  and  _326
REMARK  126  A    between atoms: _326  and  _327
REMARK  127  A    between atoms: _329  and  _331
REMARK  128  A    between atoms: _331  and  _332
REMARK  129  A    between atoms: _331  and  _334
REMARK  130  A    between atoms: _334  and  _335
REMARK  131  A    between atoms: _335  and  _336
REMARK  132  A    between atoms: _338  and  _340
REMARK  133  A    between atoms: _340  and  _341
REMARK  134  A    between atoms: _340  and  _343
REMARK  135  A    between atoms: _343  and  _344
REMARK  136  A    between atoms: _346  and  _348
REMARK  137  A    between atoms: _348  and  _349
REMARK  138  A    between atoms: _348  and  _351
REMARK  139  A    between atoms: _351  and  _352
REMARK  140  A    between atoms: _355  and  _357
REMARK  141  A    between atoms: _357  and  _358
REMARK  142  A    between atoms: _357  and  _360
REMARK  143  A    between atoms: _360  and  _361
REMARK  144  A    between atoms: _371  and  _373
REMARK  145  A    between atoms: _373  and  _374
REMARK  146  A    between atoms: _377  and  _379
REMARK  147  A    between atoms: _379  and  _380
REMARK  148  A    between atoms: _379  and  _382
REMARK  149  A    between atoms: _382  and  _383
REMARK  150  A    between atoms: _386  and  _388
REMARK  151  A    between atoms: _388  and  _389
REMARK  152  A    between atoms: _388  and  _391
REMARK  153  A    between atoms: _391  and  _392
REMARK  154  A    between atoms: _392  and  _393
REMARK  155  A    between atoms: _393  and  _394
REMARK                            x       y       z     vdW  Elec       q    Type
REMARK                         _______ _______ _______ _____ _____    ______ ____
ROOT
ATOM      1  O   HOH     1     -34.418 -18.724 -54.559  0.00  0.00    +0.000 OA
ENDROOT
TORSDOF 0
REMARK  Name = ../refined-set-2016/4azc/4azc_pocket.pdb
REMARK  155 active torsions:
REMARK  status: ('A' for Active; 'I' for Inactive)
REMARK    1  A    between atoms: _1  and  _3
REMARK    2  A    between atoms: _3  and  _4
REMARK    3  A    between atoms: _3  and  _6
REMARK    4  A    between atoms: _6  and  _7
REMARK    5  A    between atoms: _10  and  _12
REMARK    6  A    between atoms: _12  and  _13
REMARK    7  A    between atoms: _12  and  _15
REMARK    8  A    between atoms: _15  and  _16
REMARK    9  A    between atoms: _16  and  _17
REMARK   10  A    between atoms: _17  and  _18
REMARK   11  A    between atoms: _27  and  _29
REMARK   12  A    between atoms: _29  and  _30
REMARK   13  A    between atoms: _29  and  _32
REMARK   14  A    between atoms: _32  and  _33
REMARK   15  A    between atoms: _36  and  _38
REMARK   16  A    between atoms: _38  and  _39
REMARK   17  A    between atoms: _38  and  _41
REMARK   18  A    between atoms: _41  and  _42
REMARK   19  A    between atoms: _47  and  _49
REMARK   20  A    between atoms: _49  and  _50
REMARK   21  A    between atoms: _49  and  _52
REMARK   22  A    between atoms: _52  and  _53
REMARK   23  A    between atoms: _56  and  _58
REMARK   24  A    between atoms: _58  and  _59
REMARK   25  A    between atoms: _58  and  _61
REMARK   26  A    between atoms: _61  and  _62
REMARK   27  A    between atoms: _67  and  _69
REMARK   28  A    between atoms: _69  and  _70
REMARK   29  A    between atoms: _69  and  _72
REMARK   30  A    between atoms: _72  and  _73
REMARK   31  A    between atoms: _78  and  _80
REMARK   32  A    between atoms: _80  and  _81
REMARK   33  A    between atoms: _80  and  _83
REMARK   34  A    between atoms: _83  and  _84
REMARK   35  A    between atoms: _89  and  _91
REMARK   36  A    between atoms: _91  and  _92
REMARK   37  A    between atoms: _94  and  _96
REMARK   38  A    between atoms: _96  and  _97
REMARK   39  A    between atoms: _96  and  _99
REMARK   40  A    between atoms: _99  and  _100
REMARK   41  A    between atoms: _103  and  _105
REMARK   42  A    between atoms: _105  and  _106
REMARK   43  A    between atoms: _105  and  _108
REMARK   44  A    between atoms: _108  and  _109
REMARK   45  A    between atoms: _112  and  _114
REMARK   46  A    between atoms: _114  and  _115
REMARK   47  A    between atoms: _114  and  _117
REMARK   48  A    between atoms: _117  and  _118
REMARK   49  A    between atoms: _118  and  _119
REMARK   50  A    between atoms: _122  and  _124
REMARK   51  A    between atoms: _124  and  _125
REMARK   52  A    between atoms: _124  and  _127
REMARK   53  A    between atoms: _127  and  _128
REMARK   54  A    between atoms: _133  and  _135
REMARK   55  A    between atoms: _135  and  _136
REMARK   56  A    between atoms: _139  and  _141
REMARK   57  A    between atoms: _141  and  _142
REMARK   58  A    between atoms: _141  and  _144
REMARK   59  A    between atoms: _144  and  _145
REMARK   60  A    between atoms: _151  and  _153
REMARK   61  A    between atoms: _153  and  _154
REMARK   62  A    between atoms: _153  and  _156
REMARK   63  A    between atoms: _156  and  _157
REMARK   64  A    between atoms: _162  and  _164
REMARK   65  A    between atoms: _164  and  _165
REMARK   66  A    between atoms: _164  and  _167
REMARK   67  A    between atoms: _167  and  _168
REMARK   68  A    between atoms: _171  and  _173
REMARK   69  A    between atoms: _173  and  _174
REMARK   70  A    between atoms: _173  and  _176
REMARK   71  A    between atoms: _176  and  _177
REMARK   72  A    between atoms: _179  and  _181
REMARK   73  A    between atoms: _181  and  _182
REMARK   74  A    between atoms: _181  and  _184
REMARK   75  A    between atoms: _184  and  _185
REMARK   76  A    between atoms: _190  and  _191
REMARK   77  A    between atoms: _193  and  _195
REMARK   78  A    between atoms: _195  and  _196
REMARK   79  A    between atoms: _195  and  _198
REMARK   80  A    between atoms: _198  and  _199
REMARK   81  A    between atoms: _209  and  _211
REMARK   82  A    between atoms: _211  and  _212
REMARK   83  A    between atoms: _211  and  _214
REMARK   84  A    between atoms: _214  and  _215
REMARK   85  A    between atoms: _217  and  _219
REMARK   86  A    between atoms: _219  and  _220
REMARK   87  A    between atoms: _219  and  _222
REMARK   88  A    between atoms: _222  and  _223
REMARK   89  A    between atoms: _233  and  _235
REMARK   90  A    between atoms: _235  and  _236
REMARK   91  A    between atoms: _235  and  _238
REMARK   92  A    between atoms: _238  and  _239
REMARK   93  A    between atoms: _244  and  _245
REMARK   94  A    between atoms: _247  and  _249
REMARK   95  A    between atoms: _249  and  _250
REMARK   96  A    between atoms: _249  and  _252
REMARK   97  A    between atoms: _252  and  _253
REMARK   98  A    between atoms: _256  and  _258
REMARK   99  A    between atoms: _258  and  _259
REMARK  100  A    between atoms: _261  and  _263
REMARK  101  A    between atoms: _263  and  _264
REMARK  102  A    between atoms: _263  and  _266
REMARK  103  A    between atoms: _266  and  _267
REMARK  104  A    between atoms: _272  and  _273
REMARK  105  A    between atoms: _275  and  _277
REMARK  106  A    between atoms: _277  and  _278
REMARK  107  A    between atoms: _277  and  _280
REMARK  108  A    between atoms: _280  and  _281
REMARK  109  A    between atoms: _286  and  _287
REMARK  110  A    between atoms: _289  and  _291
REMARK  111  A    between atoms: _291  and  _292
REMARK  112  A    between atoms: _291  and  _294
REMARK  113  A    between atoms: _294  and  _295
REMARK  114  A    between atoms: _298  and  _300
REMARK  115  A    between atoms: _300  and  _301
REMARK  116  A    between atoms: _300  and  _303
REMARK  117  A    between atoms: _303  and  _304
REMARK  118  A    between atoms: _307  and  _309
REMARK  119  A    between atoms: _309  and  _310
REMARK  120  A    between atoms: _309  and  _312
REMARK  121  A    between atoms: _312  and  _313
REMARK  122  A    between atoms: _313  and  _314
REMARK  123  A    between atoms: _319  and  _321
REMARK  124  A    between atoms: _321  and  _322
REMARK  125  A    between atoms: _324  and  _326
REMARK  126  A    between atoms: _326  and  _327
REMARK  127  A    between atoms: _329  and  _331
REMARK  128  A    between atoms: _331  and  _332
REMARK  129  A    between atoms: _331  and  _334
REMARK  130  A    between atoms: _334  and  _335
REMARK  131  A    between atoms: _335  and  _336
REMARK  132  A    between atoms: _338  and  _340
REMARK  133  A    between atoms: _340  and  _341
REMARK  134  A    between atoms: _340  and  _343
REMARK  135  A    between atoms: _343  and  _344
REMARK  136  A    between atoms: _346  and  _348
REMARK  137  A    between atoms: _348  and  _349
REMARK  138  A    between atoms: _348  and  _351
REMARK  139  A    between atoms: _351  and  _352
REMARK  140  A    between atoms: _355  and  _357
REMARK  141  A    between atoms: _357  and  _358
REMARK  142  A    between atoms: _357  and  _360
REMARK  143  A    between atoms: _360  and  _361
REMARK  144  A    between atoms: _371  and  _373
REMARK  145  A    between atoms: _373  and  _374
REMARK  146  A    between atoms: _377  and  _379
REMARK  147  A    between atoms: _379  and  _380
REMARK  148  A    between atoms: _379  and  _382
REMARK  149  A    between atoms: _382  and  _383
REMARK  150  A    between atoms: _386  and  _388
REMARK  151  A    between atoms: _388  and  _389
REMARK  152  A    between atoms: _388  and  _391
REMARK  153  A    between atoms: _391  and  _392
REMARK  154  A    between atoms: _392  and  _393
REMARK  155  A    between atoms: _393  and  _394
REMARK                            x       y       z     vdW  Elec       q    Type
REMARK                         _______ _______ _______ _____ _____    ______ ____
ROOT
ATOM      1  O   HOH     1     -28.891 -20.599 -55.166  0.00  0.00    +0.000 OA
ENDROOT
TORSDOF 0
REMARK  Name = ../refined-set-2016/4azc/4azc_pocket.pdb
REMARK  155 active torsions:
REMARK  status: ('A' for Active; 'I' for Inactive)
REMARK    1  A    between atoms: _1  and  _3
REMARK    2  A    between atoms: _3  and  _4
REMARK    3  A    between atoms: _3  and  _6
REMARK    4  A    between atoms: _6  and  _7
REMARK    5  A    between atoms: _10  and  _12
REMARK    6  A    between atoms: _12  and  _13
REMARK    7  A    between atoms: _12  and  _15
REMARK    8  A    between atoms: _15  and  _16
REMARK    9  A    between atoms: _16  and  _17
REMARK   10  A    between atoms: _17  and  _18
REMARK   11  A    between atoms: _27  and  _29
REMARK   12  A    between atoms: _29  and  _30
REMARK   13  A    between atoms: _29  and  _32
REMARK   14  A    between atoms: _32  and  _33
REMARK   15  A    between atoms: _36  and  _38
REMARK   16  A    between atoms: _38  and  _39
REMARK   17  A    between atoms: _38  and  _41
REMARK   18  A    between atoms: _41  and  _42
REMARK   19  A    between atoms: _47  and  _49
REMARK   20  A    between atoms: _49  and  _50
REMARK   21  A    between atoms: _49  and  _52
REMARK   22  A    between atoms: _52  and  _53
REMARK   23  A    between atoms: _56  and  _58
REMARK   24  A    between atoms: _58  and  _59
REMARK   25  A    between atoms: _58  and  _61
REMARK   26  A    between atoms: _61  and  _62
REMARK   27  A    between atoms: _67  and  _69
REMARK   28  A    between atoms: _69  and  _70
REMARK   29  A    between atoms: _69  and  _72
REMARK   30  A    between atoms: _72  and  _73
REMARK   31  A    between atoms: _78  and  _80
REMARK   32  A    between atoms: _80  and  _81
REMARK   33  A    between atoms: _80  and  _83
REMARK   34  A    between atoms: _83  and  _84
REMARK   35  A    between atoms: _89  and  _91
REMARK   36  A    between atoms: _91  and  _92
REMARK   37  A    between atoms: _94  and  _96
REMARK   38  A    between atoms: _96  and  _97
REMARK   39  A    between atoms: _96  and  _99
REMARK   40  A    between atoms: _99  and  _100
REMARK   41  A    between atoms: _103  and  _105
REMARK   42  A    between atoms: _105  and  _106
REMARK   43  A    between atoms: _105  and  _108
REMARK   44  A    between atoms: _108  and  _109
REMARK   45  A    between atoms: _112  and  _114
REMARK   46  A    between atoms: _114  and  _115
REMARK   47  A    between atoms: _114  and  _117
REMARK   48  A    between atoms: _117  and  _118
REMARK   49  A    between atoms: _118  and  _119
REMARK   50  A    between atoms: _122  and  _124
REMARK   51  A    between atoms: _124  and  _125
REMARK   52  A    between atoms: _124  and  _127
REMARK   53  A    between atoms: _127  and  _128
REMARK   54  A    between atoms: _133  and  _135
REMARK   55  A    between atoms: _135  and  _136
REMARK   56  A    between atoms: _139  and  _141
REMARK   57  A    between atoms: _141  and  _142
REMARK   58  A    between atoms: _141  and  _144
REMARK   59  A    between atoms: _144  and  _145
REMARK   60  A    between atoms: _151  and  _153
REMARK   61  A    between atoms: _153  and  _154
REMARK   62  A    between atoms: _153  and  _156
REMARK   63  A    between atoms: _156  and  _157
REMARK   64  A    between atoms: _162  and  _164
REMARK   65  A    between atoms: _164  and  _165
REMARK   66  A    between atoms: _164  and  _167
REMARK   67  A    between atoms: _167  and  _168
REMARK   68  A    between atoms: _171  and  _173
REMARK   69  A    between atoms: _173  and  _174
REMARK   70  A    between atoms: _173  and  _176
REMARK   71  A    between atoms: _176  and  _177
REMARK   72  A    between atoms: _179  and  _181
REMARK   73  A    between atoms: _181  and  _182
REMARK   74  A    between atoms: _181  and  _184
REMARK   75  A    between atoms: _184  and  _185
REMARK   76  A    between atoms: _190  and  _191
REMARK   77  A    between atoms: _193  and  _195
REMARK   78  A    between atoms: _195  and  _196
REMARK   79  A    between atoms: _195  and  _198
REMARK   80  A    between atoms: _198  and  _199
REMARK   81  A    between atoms: _209  and  _211
REMARK   82  A    between atoms: _211  and  _212
REMARK   83  A    between atoms: _211  and  _214
REMARK   84  A    between atoms: _214  and  _215
REMARK   85  A    between atoms: _217  and  _219
REMARK   86  A    between atoms: _219  and  _220
REMARK   87  A    between atoms: _219  and  _222
REMARK   88  A    between atoms: _222  and  _223
REMARK   89  A    between atoms: _233  and  _235
REMARK   90  A    between atoms: _235  and  _236
REMARK   91  A    between atoms: _235  and  _238
REMARK   92  A    between atoms: _238  and  _239
REMARK   93  A    between atoms: _244  and  _245
REMARK   94  A    between atoms: _247  and  _249
REMARK   95  A    between atoms: _249  and  _250
REMARK   96  A    between atoms: _249  and  _252
REMARK   97  A    between atoms: _252  and  _253
REMARK   98  A    between atoms: _256  and  _258
REMARK   99  A    between atoms: _258  and  _259
REMARK  100  A    between atoms: _261  and  _263
REMARK  101  A    between atoms: _263  and  _264
REMARK  102  A    between atoms: _263  and  _266
REMARK  103  A    between atoms: _266  and  _267
REMARK  104  A    between atoms: _272  and  _273
REMARK  105  A    between atoms: _275  and  _277
REMARK  106  A    between atoms: _277  and  _278
REMARK  107  A    between atoms: _277  and  _280
REMARK  108  A    between atoms: _280  and  _281
REMARK  109  A    between atoms: _286  and  _287
REMARK  110  A    between atoms: _289  and  _291
REMARK  111  A    between atoms: _291  and  _292
REMARK  112  A    between atoms: _291  and  _294
REMARK  113  A    between atoms: _294  and  _295
REMARK  114  A    between atoms: _298  and  _300
REMARK  115  A    between atoms: _300  and  _301
REMARK  116  A    between atoms: _300  and  _303
REMARK  117  A    between atoms: _303  and  _304
REMARK  118  A    between atoms: _307  and  _309
REMARK  119  A    between atoms: _309  and  _310
REMARK  120  A    between atoms: _309  and  _312
REMARK  121  A    between atoms: _312  and  _313
REMARK  122  A    between atoms: _313  and  _314
REMARK  123  A    between atoms: _319  and  _321
REMARK  124  A    between atoms: _321  and  _322
REMARK  125  A    between atoms: _324  and  _326
REMARK  126  A    between atoms: _326  and  _327
REMARK  127  A    between atoms: _329  and  _331
REMARK  128  A    between atoms: _331  and  _332
REMARK  129  A    between atoms: _331  and  _334
REMARK  130  A    between atoms: _334  and  _335
REMARK  131  A    between atoms: _335  and  _336
REMARK  132  A    between atoms: _338  and  _340
REMARK  133  A    between atoms: _340  and  _341
REMARK  134  A    between atoms: _340  and  _343
REMARK  135  A    between atoms: _343  and  _344
REMARK  136  A    between atoms: _346  and  _348
REMARK  137  A    between atoms: _348  and  _349
REMARK  138  A    between atoms: _348  and  _351
REMARK  139  A    between atoms: _351  and  _352
REMARK  140  A    between atoms: _355  and  _357
REMARK  141  A    between atoms: _357  and  _358
REMARK  142  A    between atoms: _357  and  _360
REMARK  143  A    between atoms: _360  and  _361
REMARK  144  A    between atoms: _371  and  _373
REMARK  145  A    between atoms: _373  and  _374
REMARK  146  A    between atoms: _377  and  _379
REMARK  147  A    between atoms: _379  and  _380
REMARK  148  A    between atoms: _379  and  _382
REMARK  149  A    between atoms: _382  and  _383
REMARK  150  A    between atoms: _386  and  _388
REMARK  151  A    between atoms: _388  and  _389
REMARK  152  A    between atoms: _388  and  _391
REMARK  153  A    between atoms: _391  and  _392
REMARK  154  A    between atoms: _392  and  _393
REMARK  155  A    between atoms: _393  and  _394
REMARK                            x       y       z     vdW  Elec       q    Type
REMARK                         _______ _______ _______ _____ _____    ______ ____
ROOT
ATOM      1  O   HOH     1     -31.171 -13.749 -54.273  0.00  0.00    +0.000 OA
ENDROOT
TORSDOF 0
REMARK  Name = ../refined-set-2016/4azc/4azc_pocket.pdb
REMARK  155 active torsions:
REMARK  status: ('A' for Active; 'I' for Inactive)
REMARK    1  A    between atoms: _1  and  _3
REMARK    2  A    between atoms: _3  and  _4
REMARK    3  A    between atoms: _3  and  _6
REMARK    4  A    between atoms: _6  and  _7
REMARK    5  A    between atoms: _10  and  _12
REMARK    6  A    between atoms: _12  and  _13
REMARK    7  A    between atoms: _12  and  _15
REMARK    8  A    between atoms: _15  and  _16
REMARK    9  A    between atoms: _16  and  _17
REMARK   10  A    between atoms: _17  and  _18
REMARK   11  A    between atoms: _27  and  _29
REMARK   12  A    between atoms: _29  and  _30
REMARK   13  A    between atoms: _29  and  _32
REMARK   14  A    between atoms: _32  and  _33
REMARK   15  A    between atoms: _36  and  _38
REMARK   16  A    between atoms: _38  and  _39
REMARK   17  A    between atoms: _38  and  _41
REMARK   18  A    between atoms: _41  and  _42
REMARK   19  A    between atoms: _47  and  _49
REMARK   20  A    between atoms: _49  and  _50
REMARK   21  A    between atoms: _49  and  _52
REMARK   22  A    between atoms: _52  and  _53
REMARK   23  A    between atoms: _56  and  _58
REMARK   24  A    between atoms: _58  and  _59
REMARK   25  A    between atoms: _58  and  _61
REMARK   26  A    between atoms: _61  and  _62
REMARK   27  A    between atoms: _67  and  _69
REMARK   28  A    between atoms: _69  and  _70
REMARK   29  A    between atoms: _69  and  _72
REMARK   30  A    between atoms: _72  and  _73
REMARK   31  A    between atoms: _78  and  _80
REMARK   32  A    between atoms: _80  and  _81
REMARK   33  A    between atoms: _80  and  _83
REMARK   34  A    between atoms: _83  and  _84
REMARK   35  A    between atoms: _89  and  _91
REMARK   36  A    between atoms: _91  and  _92
REMARK   37  A    between atoms: _94  and  _96
REMARK   38  A    between atoms: _96  and  _97
REMARK   39  A    between atoms: _96  and  _99
REMARK   40  A    between atoms: _99  and  _100
REMARK   41  A    between atoms: _103  and  _105
REMARK   42  A    between atoms: _105  and  _106
REMARK   43  A    between atoms: _105  and  _108
REMARK   44  A    between atoms: _108  and  _109
REMARK   45  A    between atoms: _112  and  _114
REMARK   46  A    between atoms: _114  and  _115
REMARK   47  A    between atoms: _114  and  _117
REMARK   48  A    between atoms: _117  and  _118
REMARK   49  A    between atoms: _118  and  _119
REMARK   50  A    between atoms: _122  and  _124
REMARK   51  A    between atoms: _124  and  _125
REMARK   52  A    between atoms: _124  and  _127
REMARK   53  A    between atoms: _127  and  _128
REMARK   54  A    between atoms: _133  and  _135
REMARK   55  A    between atoms: _135  and  _136
REMARK   56  A    between atoms: _139  and  _141
REMARK   57  A    between atoms: _141  and  _142
REMARK   58  A    between atoms: _141  and  _144
REMARK   59  A    between atoms: _144  and  _145
REMARK   60  A    between atoms: _151  and  _153
REMARK   61  A    between atoms: _153  and  _154
REMARK   62  A    between atoms: _153  and  _156
REMARK   63  A    between atoms: _156  and  _157
REMARK   64  A    between atoms: _162  and  _164
REMARK   65  A    between atoms: _164  and  _165
REMARK   66  A    between atoms: _164  and  _167
REMARK   67  A    between atoms: _167  and  _168
REMARK   68  A    between atoms: _171  and  _173
REMARK   69  A    between atoms: _173  and  _174
REMARK   70  A    between atoms: _173  and  _176
REMARK   71  A    between atoms: _176  and  _177
REMARK   72  A    between atoms: _179  and  _181
REMARK   73  A    between atoms: _181  and  _182
REMARK   74  A    between atoms: _181  and  _184
REMARK   75  A    between atoms: _184  and  _185
REMARK   76  A    between atoms: _190  and  _191
REMARK   77  A    between atoms: _193  and  _195
REMARK   78  A    between atoms: _195  and  _196
REMARK   79  A    between atoms: _195  and  _198
REMARK   80  A    between atoms: _198  and  _199
REMARK   81  A    between atoms: _209  and  _211
REMARK   82  A    between atoms: _211  and  _212
REMARK   83  A    between atoms: _211  and  _214
REMARK   84  A    between atoms: _214  and  _215
REMARK   85  A    between atoms: _217  and  _219
REMARK   86  A    between atoms: _219  and  _220
REMARK   87  A    between atoms: _219  and  _222
REMARK   88  A    between atoms: _222  and  _223
REMARK   89  A    between atoms: _233  and  _235
REMARK   90  A    between atoms: _235  and  _236
REMARK   91  A    between atoms: _235  and  _238
REMARK   92  A    between atoms: _238  and  _239
REMARK   93  A    between atoms: _244  and  _245
REMARK   94  A    between atoms: _247  and  _249
REMARK   95  A    between atoms: _249  and  _250
REMARK   96  A    between atoms: _249  and  _252
REMARK   97  A    between atoms: _252  and  _253
REMARK   98  A    between atoms: _256  and  _258
REMARK   99  A    between atoms: _258  and  _259
REMARK  100  A    between atoms: _261  and  _263
REMARK  101  A    between atoms: _263  and  _264
REMARK  102  A    between atoms: _263  and  _266
REMARK  103  A    between atoms: _266  and  _267
REMARK  104  A    between atoms: _272  and  _273
REMARK  105  A    between atoms: _275  and  _277
REMARK  106  A    between atoms: _277  and  _278
REMARK  107  A    between atoms: _277  and  _280
REMARK  108  A    between atoms: _280  and  _281
REMARK  109  A    between atoms: _286  and  _287
REMARK  110  A    between atoms: _289  and  _291
REMARK  111  A    between atoms: _291  and  _292
REMARK  112  A    between atoms: _291  and  _294
REMARK  113  A    between atoms: _294  and  _295
REMARK  114  A    between atoms: _298  and  _300
REMARK  115  A    between atoms: _300  and  _301
REMARK  116  A    between atoms: _300  and  _303
REMARK  117  A    between atoms: _303  and  _304
REMARK  118  A    between atoms: _307  and  _309
REMARK  119  A    between atoms: _309  and  _310
REMARK  120  A    between atoms: _309  and  _312
REMARK  121  A    between atoms: _312  and  _313
REMARK  122  A    between atoms: _313  and  _314
REMARK  123  A    between atoms: _319  and  _321
REMARK  124  A    between atoms: _321  and  _322
REMARK  125  A    between atoms: _324  and  _326
REMARK  126  A    between atoms: _326  and  _327
REMARK  127  A    between atoms: _329  and  _331
REMARK  128  A    between atoms: _331  and  _332
REMARK  129  A    between atoms: _331  and  _334
REMARK  130  A    between atoms: _334  and  _335
REMARK  131  A    between atoms: _335  and  _336
REMARK  132  A    between atoms: _338  and  _340
REMARK  133  A    between atoms: _340  and  _341
REMARK  134  A    between atoms: _340  and  _343
REMARK  135  A    between atoms: _343  and  _344
REMARK  136  A    between atoms: _346  and  _348
REMARK  137  A    between atoms: _348  and  _349
REMARK  138  A    between atoms: _348  and  _351
REMARK  139  A    between atoms: _351  and  _352
REMARK  140  A    between atoms: _355  and  _357
REMARK  141  A    between atoms: _357  and  _358
REMARK  142  A    between atoms: _357  and  _360
REMARK  143  A    between atoms: _360  and  _361
REMARK  144  A    between atoms: _371  and  _373
REMARK  145  A    between atoms: _373  and  _374
REMARK  146  A    between atoms: _377  and  _379
REMARK  147  A    between atoms: _379  and  _380
REMARK  148  A    between atoms: _379  and  _382
REMARK  149  A    between atoms: _382  and  _383
REMARK  150  A    between atoms: _386  and  _388
REMARK  151  A    between atoms: _388  and  _389
REMARK  152  A    between atoms: _388  and  _391
REMARK  153  A    between atoms: _391  and  _392
REMARK  154  A    between atoms: _392  and  _393
REMARK  155  A    between atoms: _393  and  _394
REMARK                            x       y       z     vdW  Elec       q    Type
REMARK                         _______ _______ _______ _____ _____    ______ ____
ROOT
ATOM      1  O   HOH     1     -27.618 -17.010 -60.543  0.00  0.00    +0.000 OA
ENDROOT
TORSDOF 0
REMARK  Name = ../refined-set-2016/4azc/4azc_pocket.pdb
REMARK  155 active torsions:
REMARK  status: ('A' for Active; 'I' for Inactive)
REMARK    1  A    between atoms: _1  and  _3
REMARK    2  A    between atoms: _3  and  _4
REMARK    3  A    between atoms: _3  and  _6
REMARK    4  A    between atoms: _6  and  _7
REMARK    5  A    between atoms: _10  and  _12
REMARK    6  A    between atoms: _12  and  _13
REMARK    7  A    between atoms: _12  and  _15
REMARK    8  A    between atoms: _15  and  _16
REMARK    9  A    between atoms: _16  and  _17
REMARK   10  A    between atoms: _17  and  _18
REMARK   11  A    between atoms: _27  and  _29
REMARK   12  A    between atoms: _29  and  _30
REMARK   13  A    between atoms: _29  and  _32
REMARK   14  A    between atoms: _32  and  _33
REMARK   15  A    between atoms: _36  and  _38
REMARK   16  A    between atoms: _38  and  _39
REMARK   17  A    between atoms: _38  and  _41
REMARK   18  A    between atoms: _41  and  _42
REMARK   19  A    between atoms: _47  and  _49
REMARK   20  A    between atoms: _49  and  _50
REMARK   21  A    between atoms: _49  and  _52
REMARK   22  A    between atoms: _52  and  _53
REMARK   23  A    between atoms: _56  and  _58
REMARK   24  A    between atoms: _58  and  _59
REMARK   25  A    between atoms: _58  and  _61
REMARK   26  A    between atoms: _61  and  _62
REMARK   27  A    between atoms: _67  and  _69
REMARK   28  A    between atoms: _69  and  _70
REMARK   29  A    between atoms: _69  and  _72
REMARK   30  A    between atoms: _72  and  _73
REMARK   31  A    between atoms: _78  and  _80
REMARK   32  A    between atoms: _80  and  _81
REMARK   33  A    between atoms: _80  and  _83
REMARK   34  A    between atoms: _83  and  _84
REMARK   35  A    between atoms: _89  and  _91
REMARK   36  A    between atoms: _91  and  _92
REMARK   37  A    between atoms: _94  and  _96
REMARK   38  A    between atoms: _96  and  _97
REMARK   39  A    between atoms: _96  and  _99
REMARK   40  A    between atoms: _99  and  _100
REMARK   41  A    between atoms: _103  and  _105
REMARK   42  A    between atoms: _105  and  _106
REMARK   43  A    between atoms: _105  and  _108
REMARK   44  A    between atoms: _108  and  _109
REMARK   45  A    between atoms: _112  and  _114
REMARK   46  A    between atoms: _114  and  _115
REMARK   47  A    between atoms: _114  and  _117
REMARK   48  A    between atoms: _117  and  _118
REMARK   49  A    between atoms: _118  and  _119
REMARK   50  A    between atoms: _122  and  _124
REMARK   51  A    between atoms: _124  and  _125
REMARK   52  A    between atoms: _124  and  _127
REMARK   53  A    between atoms: _127  and  _128
REMARK   54  A    between atoms: _133  and  _135
REMARK   55  A    between atoms: _135  and  _136
REMARK   56  A    between atoms: _139  and  _141
REMARK   57  A    between atoms: _141  and  _142
REMARK   58  A    between atoms: _141  and  _144
REMARK   59  A    between atoms: _144  and  _145
REMARK   60  A    between atoms: _151  and  _153
REMARK   61  A    between atoms: _153  and  _154
REMARK   62  A    between atoms: _153  and  _156
REMARK   63  A    between atoms: _156  and  _157
REMARK   64  A    between atoms: _162  and  _164
REMARK   65  A    between atoms: _164  and  _165
REMARK   66  A    between atoms: _164  and  _167
REMARK   67  A    between atoms: _167  and  _168
REMARK   68  A    between atoms: _171  and  _173
REMARK   69  A    between atoms: _173  and  _174
REMARK   70  A    between atoms: _173  and  _176
REMARK   71  A    between atoms: _176  and  _177
REMARK   72  A    between atoms: _179  and  _181
REMARK   73  A    between atoms: _181  and  _182
REMARK   74  A    between atoms: _181  and  _184
REMARK   75  A    between atoms: _184  and  _185
REMARK   76  A    between atoms: _190  and  _191
REMARK   77  A    between atoms: _193  and  _195
REMARK   78  A    between atoms: _195  and  _196
REMARK   79  A    between atoms: _195  and  _198
REMARK   80  A    between atoms: _198  and  _199
REMARK   81  A    between atoms: _209  and  _211
REMARK   82  A    between atoms: _211  and  _212
REMARK   83  A    between atoms: _211  and  _214
REMARK   84  A    between atoms: _214  and  _215
REMARK   85  A    between atoms: _217  and  _219
REMARK   86  A    between atoms: _219  and  _220
REMARK   87  A    between atoms: _219  and  _222
REMARK   88  A    between atoms: _222  and  _223
REMARK   89  A    between atoms: _233  and  _235
REMARK   90  A    between atoms: _235  and  _236
REMARK   91  A    between atoms: _235  and  _238
REMARK   92  A    between atoms: _238  and  _239
REMARK   93  A    between atoms: _244  and  _245
REMARK   94  A    between atoms: _247  and  _249
REMARK   95  A    between atoms: _249  and  _250
REMARK   96  A    between atoms: _249  and  _252
REMARK   97  A    between atoms: _252  and  _253
REMARK   98  A    between atoms: _256  and  _258
REMARK   99  A    between atoms: _258  and  _259
REMARK  100  A    between atoms: _261  and  _263
REMARK  101  A    between atoms: _263  and  _264
REMARK  102  A    between atoms: _263  and  _266
REMARK  103  A    between atoms: _266  and  _267
REMARK  104  A    between atoms: _272  and  _273
REMARK  105  A    between atoms: _275  and  _277
REMARK  106  A    between atoms: _277  and  _278
REMARK  107  A    between atoms: _277  and  _280
REMARK  108  A    between atoms: _280  and  _281
REMARK  109  A    between atoms: _286  and  _287
REMARK  110  A    between atoms: _289  and  _291
REMARK  111  A    between atoms: _291  and  _292
REMARK  112  A    between atoms: _291  and  _294
REMARK  113  A    between atoms: _294  and  _295
REMARK  114  A    between atoms: _298  and  _300
REMARK  115  A    between atoms: _300  and  _301
REMARK  116  A    between atoms: _300  and  _303
REMARK  117  A    between atoms: _303  and  _304
REMARK  118  A    between atoms: _307  and  _309
REMARK  119  A    between atoms: _309  and  _310
REMARK  120  A    between atoms: _309  and  _312
REMARK  121  A    between atoms: _312  and  _313
REMARK  122  A    between atoms: _313  and  _314
REMARK  123  A    between atoms: _319  and  _321
REMARK  124  A    between atoms: _321  and  _322
REMARK  125  A    between atoms: _324  and  _326
REMARK  126  A    between atoms: _326  and  _327
REMARK  127  A    between atoms: _329  and  _331
REMARK  128  A    between atoms: _331  and  _332
REMARK  129  A    between atoms: _331  and  _334
REMARK  130  A    between atoms: _334  and  _335
REMARK  131  A    between atoms: _335  and  _336
REMARK  132  A    between atoms: _338  and  _340
REMARK  133  A    between atoms: _340  and  _341
REMARK  134  A    between atoms: _340  and  _343
REMARK  135  A    between atoms: _343  and  _344
REMARK  136  A    between atoms: _346  and  _348
REMARK  137  A    between atoms: _348  and  _349
REMARK  138  A    between atoms: _348  and  _351
REMARK  139  A    between atoms: _351  and  _352
REMARK  140  A    between atoms: _355  and  _357
REMARK  141  A    between atoms: _357  and  _358
REMARK  142  A    between atoms: _357  and  _360
REMARK  143  A    between atoms: _360  and  _361
REMARK  144  A    between atoms: _371  and  _373
REMARK  145  A    between atoms: _373  and  _374
REMARK  146  A    between atoms: _377  and  _379
REMARK  147  A    between atoms: _379  and  _380
REMARK  148  A    between atoms: _379  and  _382
REMARK  149  A    between atoms: _382  and  _383
REMARK  150  A    between atoms: _386  and  _388
REMARK  151  A    between atoms: _388  and  _389
REMARK  152  A    between atoms: _388  and  _391
REMARK  153  A    between atoms: _391  and  _392
REMARK  154  A    between atoms: _392  and  _393
REMARK  155  A    between atoms: _393  and  _394
REMARK                            x       y       z     vdW  Elec       q    Type
REMARK                         _______ _______ _______ _____ _____    ______ ____
ROOT
ATOM      1  O   HOH     1     -31.896 -14.866 -58.282  0.00  0.00    +0.000 OA
ENDROOT
TORSDOF 0
REMARK  Name = ../refined-set-2016/4azc/4azc_pocket.pdb
REMARK  155 active torsions:
REMARK  status: ('A' for Active; 'I' for Inactive)
REMARK    1  A    between atoms: _1  and  _3
REMARK    2  A    between atoms: _3  and  _4
REMARK    3  A    between atoms: _3  and  _6
REMARK    4  A    between atoms: _6  and  _7
REMARK    5  A    between atoms: _10  and  _12
REMARK    6  A    between atoms: _12  and  _13
REMARK    7  A    between atoms: _12  and  _15
REMARK    8  A    between atoms: _15  and  _16
REMARK    9  A    between atoms: _16  and  _17
REMARK   10  A    between atoms: _17  and  _18
REMARK   11  A    between atoms: _27  and  _29
REMARK   12  A    between atoms: _29  and  _30
REMARK   13  A    between atoms: _29  and  _32
REMARK   14  A    between atoms: _32  and  _33
REMARK   15  A    between atoms: _36  and  _38
REMARK   16  A    between atoms: _38  and  _39
REMARK   17  A    between atoms: _38  and  _41
REMARK   18  A    between atoms: _41  and  _42
REMARK   19  A    between atoms: _47  and  _49
REMARK   20  A    between atoms: _49  and  _50
REMARK   21  A    between atoms: _49  and  _52
REMARK   22  A    between atoms: _52  and  _53
REMARK   23  A    between atoms: _56  and  _58
REMARK   24  A    between atoms: _58  and  _59
REMARK   25  A    between atoms: _58  and  _61
REMARK   26  A    between atoms: _61  and  _62
REMARK   27  A    between atoms: _67  and  _69
REMARK   28  A    between atoms: _69  and  _70
REMARK   29  A    between atoms: _69  and  _72
REMARK   30  A    between atoms: _72  and  _73
REMARK   31  A    between atoms: _78  and  _80
REMARK   32  A    between atoms: _80  and  _81
REMARK   33  A    between atoms: _80  and  _83
REMARK   34  A    between atoms: _83  and  _84
REMARK   35  A    between atoms: _89  and  _91
REMARK   36  A    between atoms: _91  and  _92
REMARK   37  A    between atoms: _94  and  _96
REMARK   38  A    between atoms: _96  and  _97
REMARK   39  A    between atoms: _96  and  _99
REMARK   40  A    between atoms: _99  and  _100
REMARK   41  A    between atoms: _103  and  _105
REMARK   42  A    between atoms: _105  and  _106
REMARK   43  A    between atoms: _105  and  _108
REMARK   44  A    between atoms: _108  and  _109
REMARK   45  A    between atoms: _112  and  _114
REMARK   46  A    between atoms: _114  and  _115
REMARK   47  A    between atoms: _114  and  _117
REMARK   48  A    between atoms: _117  and  _118
REMARK   49  A    between atoms: _118  and  _119
REMARK   50  A    between atoms: _122  and  _124
REMARK   51  A    between atoms: _124  and  _125
REMARK   52  A    between atoms: _124  and  _127
REMARK   53  A    between atoms: _127  and  _128
REMARK   54  A    between atoms: _133  and  _135
REMARK   55  A    between atoms: _135  and  _136
REMARK   56  A    between atoms: _139  and  _141
REMARK   57  A    between atoms: _141  and  _142
REMARK   58  A    between atoms: _141  and  _144
REMARK   59  A    between atoms: _144  and  _145
REMARK   60  A    between atoms: _151  and  _153
REMARK   61  A    between atoms: _153  and  _154
REMARK   62  A    between atoms: _153  and  _156
REMARK   63  A    between atoms: _156  and  _157
REMARK   64  A    between atoms: _162  and  _164
REMARK   65  A    between atoms: _164  and  _165
REMARK   66  A    between atoms: _164  and  _167
REMARK   67  A    between atoms: _167  and  _168
REMARK   68  A    between atoms: _171  and  _173
REMARK   69  A    between atoms: _173  and  _174
REMARK   70  A    between atoms: _173  and  _176
REMARK   71  A    between atoms: _176  and  _177
REMARK   72  A    between atoms: _179  and  _181
REMARK   73  A    between atoms: _181  and  _182
REMARK   74  A    between atoms: _181  and  _184
REMARK   75  A    between atoms: _184  and  _185
REMARK   76  A    between atoms: _190  and  _191
REMARK   77  A    between atoms: _193  and  _195
REMARK   78  A    between atoms: _195  and  _196
REMARK   79  A    between atoms: _195  and  _198
REMARK   80  A    between atoms: _198  and  _199
REMARK   81  A    between atoms: _209  and  _211
REMARK   82  A    between atoms: _211  and  _212
REMARK   83  A    between atoms: _211  and  _214
REMARK   84  A    between atoms: _214  and  _215
REMARK   85  A    between atoms: _217  and  _219
REMARK   86  A    between atoms: _219  and  _220
REMARK   87  A    between atoms: _219  and  _222
REMARK   88  A    between atoms: _222  and  _223
REMARK   89  A    between atoms: _233  and  _235
REMARK   90  A    between atoms: _235  and  _236
REMARK   91  A    between atoms: _235  and  _238
REMARK   92  A    between atoms: _238  and  _239
REMARK   93  A    between atoms: _244  and  _245
REMARK   94  A    between atoms: _247  and  _249
REMARK   95  A    between atoms: _249  and  _250
REMARK   96  A    between atoms: _249  and  _252
REMARK   97  A    between atoms: _252  and  _253
REMARK   98  A    between atoms: _256  and  _258
REMARK   99  A    between atoms: _258  and  _259
REMARK  100  A    between atoms: _261  and  _263
REMARK  101  A    between atoms: _263  and  _264
REMARK  102  A    between atoms: _263  and  _266
REMARK  103  A    between atoms: _266  and  _267
REMARK  104  A    between atoms: _272  and  _273
REMARK  105  A    between atoms: _275  and  _277
REMARK  106  A    between atoms: _277  and  _278
REMARK  107  A    between atoms: _277  and  _280
REMARK  108  A    between atoms: _280  and  _281
REMARK  109  A    between atoms: _286  and  _287
REMARK  110  A    between atoms: _289  and  _291
REMARK  111  A    between atoms: _291  and  _292
REMARK  112  A    between atoms: _291  and  _294
REMARK  113  A    between atoms: _294  and  _295
REMARK  114  A    between atoms: _298  and  _300
REMARK  115  A    between atoms: _300  and  _301
REMARK  116  A    between atoms: _300  and  _303
REMARK  117  A    between atoms: _303  and  _304
REMARK  118  A    between atoms: _307  and  _309
REMARK  119  A    between atoms: _309  and  _310
REMARK  120  A    between atoms: _309  and  _312
REMARK  121  A    between atoms: _312  and  _313
REMARK  122  A    between atoms: _313  and  _314
REMARK  123  A    between atoms: _319  and  _321
REMARK  124  A    between atoms: _321  and  _322
REMARK  125  A    between atoms: _324  and  _326
REMARK  126  A    between atoms: _326  and  _327
REMARK  127  A    between atoms: _329  and  _331
REMARK  128  A    between atoms: _331  and  _332
REMARK  129  A    between atoms: _331  and  _334
REMARK  130  A    between atoms: _334  and  _335
REMARK  131  A    between atoms: _335  and  _336
REMARK  132  A    between atoms: _338  and  _340
REMARK  133  A    between atoms: _340  and  _341
REMARK  134  A    between atoms: _340  and  _343
REMARK  135  A    between atoms: _343  and  _344
REMARK  136  A    between atoms: _346  and  _348
REMARK  137  A    between atoms: _348  and  _349
REMARK  138  A    between atoms: _348  and  _351
REMARK  139  A    between atoms: _351  and  _352
REMARK  140  A    between atoms: _355  and  _357
REMARK  141  A    between atoms: _357  and  _358
REMARK  142  A    between atoms: _357  and  _360
REMARK  143  A    between atoms: _360  and  _361
REMARK  144  A    between atoms: _371  and  _373
REMARK  145  A    between atoms: _373  and  _374
REMARK  146  A    between atoms: _377  and  _379
REMARK  147  A    between atoms: _379  and  _380
REMARK  148  A    between atoms: _379  and  _382
REMARK  149  A    between atoms: _382  and  _383
REMARK  150  A    between atoms: _386  and  _388
REMARK  151  A    between atoms: _388  and  _389
REMARK  152  A    between atoms: _388  and  _391
REMARK  153  A    between atoms: _391  and  _392
REMARK  154  A    between atoms: _392  and  _393
REMARK  155  A    between atoms: _393  and  _394
REMARK                            x       y       z     vdW  Elec       q    Type
REMARK                         _______ _______ _______ _____ _____    ______ ____
ROOT
ATOM      1  O   HOH     1     -33.301 -15.093 -55.723  0.00  0.00    +0.000 OA
ENDROOT
TORSDOF 0
REMARK  Name = ../refined-set-2016/4azc/4azc_pocket.pdb
REMARK  155 active torsions:
REMARK  status: ('A' for Active; 'I' for Inactive)
REMARK    1  A    between atoms: _1  and  _3
REMARK    2  A    between atoms: _3  and  _4
REMARK    3  A    between atoms: _3  and  _6
REMARK    4  A    between atoms: _6  and  _7
REMARK    5  A    between atoms: _10  and  _12
REMARK    6  A    between atoms: _12  and  _13
REMARK    7  A    between atoms: _12  and  _15
REMARK    8  A    between atoms: _15  and  _16
REMARK    9  A    between atoms: _16  and  _17
REMARK   10  A    between atoms: _17  and  _18
REMARK   11  A    between atoms: _27  and  _29
REMARK   12  A    between atoms: _29  and  _30
REMARK   13  A    between atoms: _29  and  _32
REMARK   14  A    between atoms: _32  and  _33
REMARK   15  A    between atoms: _36  and  _38
REMARK   16  A    between atoms: _38  and  _39
REMARK   17  A    between atoms: _38  and  _41
REMARK   18  A    between atoms: _41  and  _42
REMARK   19  A    between atoms: _47  and  _49
REMARK   20  A    between atoms: _49  and  _50
REMARK   21  A    between atoms: _49  and  _52
REMARK   22  A    between atoms: _52  and  _53
REMARK   23  A    between atoms: _56  and  _58
REMARK   24  A    between atoms: _58  and  _59
REMARK   25  A    between atoms: _58  and  _61
REMARK   26  A    between atoms: _61  and  _62
REMARK   27  A    between atoms: _67  and  _69
REMARK   28  A    between atoms: _69  and  _70
REMARK   29  A    between atoms: _69  and  _72
REMARK   30  A    between atoms: _72  and  _73
REMARK   31  A    between atoms: _78  and  _80
REMARK   32  A    between atoms: _80  and  _81
REMARK   33  A    between atoms: _80  and  _83
REMARK   34  A    between atoms: _83  and  _84
REMARK   35  A    between atoms: _89  and  _91
REMARK   36  A    between atoms: _91  and  _92
REMARK   37  A    between atoms: _94  and  _96
REMARK   38  A    between atoms: _96  and  _97
REMARK   39  A    between atoms: _96  and  _99
REMARK   40  A    between atoms: _99  and  _100
REMARK   41  A    between atoms: _103  and  _105
REMARK   42  A    between atoms: _105  and  _106
REMARK   43  A    between atoms: _105  and  _108
REMARK   44  A    between atoms: _108  and  _109
REMARK   45  A    between atoms: _112  and  _114
REMARK   46  A    between atoms: _114  and  _115
REMARK   47  A    between atoms: _114  and  _117
REMARK   48  A    between atoms: _117  and  _118
REMARK   49  A    between atoms: _118  and  _119
REMARK   50  A    between atoms: _122  and  _124
REMARK   51  A    between atoms: _124  and  _125
REMARK   52  A    between atoms: _124  and  _127
REMARK   53  A    between atoms: _127  and  _128
REMARK   54  A    between atoms: _133  and  _135
REMARK   55  A    between atoms: _135  and  _136
REMARK   56  A    between atoms: _139  and  _141
REMARK   57  A    between atoms: _141  and  _142
REMARK   58  A    between atoms: _141  and  _144
REMARK   59  A    between atoms: _144  and  _145
REMARK   60  A    between atoms: _151  and  _153
REMARK   61  A    between atoms: _153  and  _154
REMARK   62  A    between atoms: _153  and  _156
REMARK   63  A    between atoms: _156  and  _157
REMARK   64  A    between atoms: _162  and  _164
REMARK   65  A    between atoms: _164  and  _165
REMARK   66  A    between atoms: _164  and  _167
REMARK   67  A    between atoms: _167  and  _168
REMARK   68  A    between atoms: _171  and  _173
REMARK   69  A    between atoms: _173  and  _174
REMARK   70  A    between atoms: _173  and  _176
REMARK   71  A    between atoms: _176  and  _177
REMARK   72  A    between atoms: _179  and  _181
REMARK   73  A    between atoms: _181  and  _182
REMARK   74  A    between atoms: _181  and  _184
REMARK   75  A    between atoms: _184  and  _185
REMARK   76  A    between atoms: _190  and  _191
REMARK   77  A    between atoms: _193  and  _195
REMARK   78  A    between atoms: _195  and  _196
REMARK   79  A    between atoms: _195  and  _198
REMARK   80  A    between atoms: _198  and  _199
REMARK   81  A    between atoms: _209  and  _211
REMARK   82  A    between atoms: _211  and  _212
REMARK   83  A    between atoms: _211  and  _214
REMARK   84  A    between atoms: _214  and  _215
REMARK   85  A    between atoms: _217  and  _219
REMARK   86  A    between atoms: _219  and  _220
REMARK   87  A    between atoms: _219  and  _222
REMARK   88  A    between atoms: _222  and  _223
REMARK   89  A    between atoms: _233  and  _235
REMARK   90  A    between atoms: _235  and  _236
REMARK   91  A    between atoms: _235  and  _238
REMARK   92  A    between atoms: _238  and  _239
REMARK   93  A    between atoms: _244  and  _245
REMARK   94  A    between atoms: _247  and  _249
REMARK   95  A    between atoms: _249  and  _250
REMARK   96  A    between atoms: _249  and  _252
REMARK   97  A    between atoms: _252  and  _253
REMARK   98  A    between atoms: _256  and  _258
REMARK   99  A    between atoms: _258  and  _259
REMARK  100  A    between atoms: _261  and  _263
REMARK  101  A    between atoms: _263  and  _264
REMARK  102  A    between atoms: _263  and  _266
REMARK  103  A    between atoms: _266  and  _267
REMARK  104  A    between atoms: _272  and  _273
REMARK  105  A    between atoms: _275  and  _277
REMARK  106  A    between atoms: _277  and  _278
REMARK  107  A    between atoms: _277  and  _280
REMARK  108  A    between atoms: _280  and  _281
REMARK  109  A    between atoms: _286  and  _287
REMARK  110  A    between atoms: _289  and  _291
REMARK  111  A    between atoms: _291  and  _292
REMARK  112  A    between atoms: _291  and  _294
REMARK  113  A    between atoms: _294  and  _295
REMARK  114  A    between atoms: _298  and  _300
REMARK  115  A    between atoms: _300  and  _301
REMARK  116  A    between atoms: _300  and  _303
REMARK  117  A    between atoms: _303  and  _304
REMARK  118  A    between atoms: _307  and  _309
REMARK  119  A    between atoms: _309  and  _310
REMARK  120  A    between atoms: _309  and  _312
REMARK  121  A    between atoms: _312  and  _313
REMARK  122  A    between atoms: _313  and  _314
REMARK  123  A    between atoms: _319  and  _321
REMARK  124  A    between atoms: _321  and  _322
REMARK  125  A    between atoms: _324  and  _326
REMARK  126  A    between atoms: _326  and  _327
REMARK  127  A    between atoms: _329  and  _331
REMARK  128  A    between atoms: _331  and  _332
REMARK  129  A    between atoms: _331  and  _334
REMARK  130  A    between atoms: _334  and  _335
REMARK  131  A    between atoms: _335  and  _336
REMARK  132  A    between atoms: _338  and  _340
REMARK  133  A    between atoms: _340  and  _341
REMARK  134  A    between atoms: _340  and  _343
REMARK  135  A    between atoms: _343  and  _344
REMARK  136  A    between atoms: _346  and  _348
REMARK  137  A    between atoms: _348  and  _349
REMARK  138  A    between atoms: _348  and  _351
REMARK  139  A    between atoms: _351  and  _352
REMARK  140  A    between atoms: _355  and  _357
REMARK  141  A    between atoms: _357  and  _358
REMARK  142  A    between atoms: _357  and  _360
REMARK  143  A    between atoms: _360  and  _361
REMARK  144  A    between atoms: _371  and  _373
REMARK  145  A    between atoms: _373  and  _374
REMARK  146  A    between atoms: _377  and  _379
REMARK  147  A    between atoms: _379  and  _380
REMARK  148  A    between atoms: _379  and  _382
REMARK  149  A    between atoms: _382  and  _383
REMARK  150  A    between atoms: _386  and  _388
REMARK  151  A    between atoms: _388  and  _389
REMARK  152  A    between atoms: _388  and  _391
REMARK  153  A    between atoms: _391  and  _392
REMARK  154  A    between atoms: _392  and  _393
REMARK  155  A    between atoms: _393  and  _394
REMARK                            x       y       z     vdW  Elec       q    Type
REMARK                         _______ _______ _______ _____ _____    ______ ____
ROOT
ATOM      1  O   HOH     1     -28.312 -22.100 -64.558  0.00  0.00    +0.000 OA
ENDROOT
TORSDOF 0
REMARK  Name = ../refined-set-2016/4azc/4azc_pocket.pdb
REMARK  155 active torsions:
REMARK  status: ('A' for Active; 'I' for Inactive)
REMARK    1  A    between atoms: _1  and  _3
REMARK    2  A    between atoms: _3  and  _4
REMARK    3  A    between atoms: _3  and  _6
REMARK    4  A    between atoms: _6  and  _7
REMARK    5  A    between atoms: _10  and  _12
REMARK    6  A    between atoms: _12  and  _13
REMARK    7  A    between atoms: _12  and  _15
REMARK    8  A    between atoms: _15  and  _16
REMARK    9  A    between atoms: _16  and  _17
REMARK   10  A    between atoms: _17  and  _18
REMARK   11  A    between atoms: _27  and  _29
REMARK   12  A    between atoms: _29  and  _30
REMARK   13  A    between atoms: _29  and  _32
REMARK   14  A    between atoms: _32  and  _33
REMARK   15  A    between atoms: _36  and  _38
REMARK   16  A    between atoms: _38  and  _39
REMARK   17  A    between atoms: _38  and  _41
REMARK   18  A    between atoms: _41  and  _42
REMARK   19  A    between atoms: _47  and  _49
REMARK   20  A    between atoms: _49  and  _50
REMARK   21  A    between atoms: _49  and  _52
REMARK   22  A    between atoms: _52  and  _53
REMARK   23  A    between atoms: _56  and  _58
REMARK   24  A    between atoms: _58  and  _59
REMARK   25  A    between atoms: _58  and  _61
REMARK   26  A    between atoms: _61  and  _62
REMARK   27  A    between atoms: _67  and  _69
REMARK   28  A    between atoms: _69  and  _70
REMARK   29  A    between atoms: _69  and  _72
REMARK   30  A    between atoms: _72  and  _73
REMARK   31  A    between atoms: _78  and  _80
REMARK   32  A    between atoms: _80  and  _81
REMARK   33  A    between atoms: _80  and  _83
REMARK   34  A    between atoms: _83  and  _84
REMARK   35  A    between atoms: _89  and  _91
REMARK   36  A    between atoms: _91  and  _92
REMARK   37  A    between atoms: _94  and  _96
REMARK   38  A    between atoms: _96  and  _97
REMARK   39  A    between atoms: _96  and  _99
REMARK   40  A    between atoms: _99  and  _100
REMARK   41  A    between atoms: _103  and  _105
REMARK   42  A    between atoms: _105  and  _106
REMARK   43  A    between atoms: _105  and  _108
REMARK   44  A    between atoms: _108  and  _109
REMARK   45  A    between atoms: _112  and  _114
REMARK   46  A    between atoms: _114  and  _115
REMARK   47  A    between atoms: _114  and  _117
REMARK   48  A    between atoms: _117  and  _118
REMARK   49  A    between atoms: _118  and  _119
REMARK   50  A    between atoms: _122  and  _124
REMARK   51  A    between atoms: _124  and  _125
REMARK   52  A    between atoms: _124  and  _127
REMARK   53  A    between atoms: _127  and  _128
REMARK   54  A    between atoms: _133  and  _135
REMARK   55  A    between atoms: _135  and  _136
REMARK   56  A    between atoms: _139  and  _141
REMARK   57  A    between atoms: _141  and  _142
REMARK   58  A    between atoms: _141  and  _144
REMARK   59  A    between atoms: _144  and  _145
REMARK   60  A    between atoms: _151  and  _153
REMARK   61  A    between atoms: _153  and  _154
REMARK   62  A    between atoms: _153  and  _156
REMARK   63  A    between atoms: _156  and  _157
REMARK   64  A    between atoms: _162  and  _164
REMARK   65  A    between atoms: _164  and  _165
REMARK   66  A    between atoms: _164  and  _167
REMARK   67  A    between atoms: _167  and  _168
REMARK   68  A    between atoms: _171  and  _173
REMARK   69  A    between atoms: _173  and  _174
REMARK   70  A    between atoms: _173  and  _176
REMARK   71  A    between atoms: _176  and  _177
REMARK   72  A    between atoms: _179  and  _181
REMARK   73  A    between atoms: _181  and  _182
REMARK   74  A    between atoms: _181  and  _184
REMARK   75  A    between atoms: _184  and  _185
REMARK   76  A    between atoms: _190  and  _191
REMARK   77  A    between atoms: _193  and  _195
REMARK   78  A    between atoms: _195  and  _196
REMARK   79  A    between atoms: _195  and  _198
REMARK   80  A    between atoms: _198  and  _199
REMARK   81  A    between atoms: _209  and  _211
REMARK   82  A    between atoms: _211  and  _212
REMARK   83  A    between atoms: _211  and  _214
REMARK   84  A    between atoms: _214  and  _215
REMARK   85  A    between atoms: _217  and  _219
REMARK   86  A    between atoms: _219  and  _220
REMARK   87  A    between atoms: _219  and  _222
REMARK   88  A    between atoms: _222  and  _223
REMARK   89  A    between atoms: _233  and  _235
REMARK   90  A    between atoms: _235  and  _236
REMARK   91  A    between atoms: _235  and  _238
REMARK   92  A    between atoms: _238  and  _239
REMARK   93  A    between atoms: _244  and  _245
REMARK   94  A    between atoms: _247  and  _249
REMARK   95  A    between atoms: _249  and  _250
REMARK   96  A    between atoms: _249  and  _252
REMARK   97  A    between atoms: _252  and  _253
REMARK   98  A    between atoms: _256  and  _258
REMARK   99  A    between atoms: _258  and  _259
REMARK  100  A    between atoms: _261  and  _263
REMARK  101  A    between atoms: _263  and  _264
REMARK  102  A    between atoms: _263  and  _266
REMARK  103  A    between atoms: _266  and  _267
REMARK  104  A    between atoms: _272  and  _273
REMARK  105  A    between atoms: _275  and  _277
REMARK  106  A    between atoms: _277  and  _278
REMARK  107  A    between atoms: _277  and  _280
REMARK  108  A    between atoms: _280  and  _281
REMARK  109  A    between atoms: _286  and  _287
REMARK  110  A    between atoms: _289  and  _291
REMARK  111  A    between atoms: _291  and  _292
REMARK  112  A    between atoms: _291  and  _294
REMARK  113  A    between atoms: _294  and  _295
REMARK  114  A    between atoms: _298  and  _300
REMARK  115  A    between atoms: _300  and  _301
REMARK  116  A    between atoms: _300  and  _303
REMARK  117  A    between atoms: _303  and  _304
REMARK  118  A    between atoms: _307  and  _309
REMARK  119  A    between atoms: _309  and  _310
REMARK  120  A    between atoms: _309  and  _312
REMARK  121  A    between atoms: _312  and  _313
REMARK  122  A    between atoms: _313  and  _314
REMARK  123  A    between atoms: _319  and  _321
REMARK  124  A    between atoms: _321  and  _322
REMARK  125  A    between atoms: _324  and  _326
REMARK  126  A    between atoms: _326  and  _327
REMARK  127  A    between atoms: _329  and  _331
REMARK  128  A    between atoms: _331  and  _332
REMARK  129  A    between atoms: _331  and  _334
REMARK  130  A    between atoms: _334  and  _335
REMARK  131  A    between atoms: _335  and  _336
REMARK  132  A    between atoms: _338  and  _340
REMARK  133  A    between atoms: _340  and  _341
REMARK  134  A    between atoms: _340  and  _343
REMARK  135  A    between atoms: _343  and  _344
REMARK  136  A    between atoms: _346  and  _348
REMARK  137  A    between atoms: _348  and  _349
REMARK  138  A    between atoms: _348  and  _351
REMARK  139  A    between atoms: _351  and  _352
REMARK  140  A    between atoms: _355  and  _357
REMARK  141  A    between atoms: _357  and  _358
REMARK  142  A    between atoms: _357  and  _360
REMARK  143  A    between atoms: _360  and  _361
REMARK  144  A    between atoms: _371  and  _373
REMARK  145  A    between atoms: _373  and  _374
REMARK  146  A    between atoms: _377  and  _379
REMARK  147  A    between atoms: _379  and  _380
REMARK  148  A    between atoms: _379  and  _382
REMARK  149  A    between atoms: _382  and  _383
REMARK  150  A    between atoms: _386  and  _388
REMARK  151  A    between atoms: _388  and  _389
REMARK  152  A    between atoms: _388  and  _391
REMARK  153  A    between atoms: _391  and  _392
REMARK  154  A    between atoms: _392  and  _393
REMARK  155  A    between atoms: _393  and  _394
REMARK                            x       y       z     vdW  Elec       q    Type
REMARK                         _______ _______ _______ _____ _____    ______ ____
ROOT
ATOM      1  O   HOH     1     -35.996 -21.081 -55.184  0.00  0.00    +0.000 OA
ENDROOT
TORSDOF 0
REMARK  Name = ../refined-set-2016/4azc/4azc_pocket.pdb
REMARK  155 active torsions:
REMARK  status: ('A' for Active; 'I' for Inactive)
REMARK    1  A    between atoms: _1  and  _3
REMARK    2  A    between atoms: _3  and  _4
REMARK    3  A    between atoms: _3  and  _6
REMARK    4  A    between atoms: _6  and  _7
REMARK    5  A    between atoms: _10  and  _12
REMARK    6  A    between atoms: _12  and  _13
REMARK    7  A    between atoms: _12  and  _15
REMARK    8  A    between atoms: _15  and  _16
REMARK    9  A    between atoms: _16  and  _17
REMARK   10  A    between atoms: _17  and  _18
REMARK   11  A    between atoms: _27  and  _29
REMARK   12  A    between atoms: _29  and  _30
REMARK   13  A    between atoms: _29  and  _32
REMARK   14  A    between atoms: _32  and  _33
REMARK   15  A    between atoms: _36  and  _38
REMARK   16  A    between atoms: _38  and  _39
REMARK   17  A    between atoms: _38  and  _41
REMARK   18  A    between atoms: _41  and  _42
REMARK   19  A    between atoms: _47  and  _49
REMARK   20  A    between atoms: _49  and  _50
REMARK   21  A    between atoms: _49  and  _52
REMARK   22  A    between atoms: _52  and  _53
REMARK   23  A    between atoms: _56  and  _58
REMARK   24  A    between atoms: _58  and  _59
REMARK   25  A    between atoms: _58  and  _61
REMARK   26  A    between atoms: _61  and  _62
REMARK   27  A    between atoms: _67  and  _69
REMARK   28  A    between atoms: _69  and  _70
REMARK   29  A    between atoms: _69  and  _72
REMARK   30  A    between atoms: _72  and  _73
REMARK   31  A    between atoms: _78  and  _80
REMARK   32  A    between atoms: _80  and  _81
REMARK   33  A    between atoms: _80  and  _83
REMARK   34  A    between atoms: _83  and  _84
REMARK   35  A    between atoms: _89  and  _91
REMARK   36  A    between atoms: _91  and  _92
REMARK   37  A    between atoms: _94  and  _96
REMARK   38  A    between atoms: _96  and  _97
REMARK   39  A    between atoms: _96  and  _99
REMARK   40  A    between atoms: _99  and  _100
REMARK   41  A    between atoms: _103  and  _105
REMARK   42  A    between atoms: _105  and  _106
REMARK   43  A    between atoms: _105  and  _108
REMARK   44  A    between atoms: _108  and  _109
REMARK   45  A    between atoms: _112  and  _114
REMARK   46  A    between atoms: _114  and  _115
REMARK   47  A    between atoms: _114  and  _117
REMARK   48  A    between atoms: _117  and  _118
REMARK   49  A    between atoms: _118  and  _119
REMARK   50  A    between atoms: _122  and  _124
REMARK   51  A    between atoms: _124  and  _125
REMARK   52  A    between atoms: _124  and  _127
REMARK   53  A    between atoms: _127  and  _128
REMARK   54  A    between atoms: _133  and  _135
REMARK   55  A    between atoms: _135  and  _136
REMARK   56  A    between atoms: _139  and  _141
REMARK   57  A    between atoms: _141  and  _142
REMARK   58  A    between atoms: _141  and  _144
REMARK   59  A    between atoms: _144  and  _145
REMARK   60  A    between atoms: _151  and  _153
REMARK   61  A    between atoms: _153  and  _154
REMARK   62  A    between atoms: _153  and  _156
REMARK   63  A    between atoms: _156  and  _157
REMARK   64  A    between atoms: _162  and  _164
REMARK   65  A    between atoms: _164  and  _165
REMARK   66  A    between atoms: _164  and  _167
REMARK   67  A    between atoms: _167  and  _168
REMARK   68  A    between atoms: _171  and  _173
REMARK   69  A    between atoms: _173  and  _174
REMARK   70  A    between atoms: _173  and  _176
REMARK   71  A    between atoms: _176  and  _177
REMARK   72  A    between atoms: _179  and  _181
REMARK   73  A    between atoms: _181  and  _182
REMARK   74  A    between atoms: _181  and  _184
REMARK   75  A    between atoms: _184  and  _185
REMARK   76  A    between atoms: _190  and  _191
REMARK   77  A    between atoms: _193  and  _195
REMARK   78  A    between atoms: _195  and  _196
REMARK   79  A    between atoms: _195  and  _198
REMARK   80  A    between atoms: _198  and  _199
REMARK   81  A    between atoms: _209  and  _211
REMARK   82  A    between atoms: _211  and  _212
REMARK   83  A    between atoms: _211  and  _214
REMARK   84  A    between atoms: _214  and  _215
REMARK   85  A    between atoms: _217  and  _219
REMARK   86  A    between atoms: _219  and  _220
REMARK   87  A    between atoms: _219  and  _222
REMARK   88  A    between atoms: _222  and  _223
REMARK   89  A    between atoms: _233  and  _235
REMARK   90  A    between atoms: _235  and  _236
REMARK   91  A    between atoms: _235  and  _238
REMARK   92  A    between atoms: _238  and  _239
REMARK   93  A    between atoms: _244  and  _245
REMARK   94  A    between atoms: _247  and  _249
REMARK   95  A    between atoms: _249  and  _250
REMARK   96  A    between atoms: _249  and  _252
REMARK   97  A    between atoms: _252  and  _253
REMARK   98  A    between atoms: _256  and  _258
REMARK   99  A    between atoms: _258  and  _259
REMARK  100  A    between atoms: _261  and  _263
REMARK  101  A    between atoms: _263  and  _264
REMARK  102  A    between atoms: _263  and  _266
REMARK  103  A    between atoms: _266  and  _267
REMARK  104  A    between atoms: _272  and  _273
REMARK  105  A    between atoms: _275  and  _277
REMARK  106  A    between atoms: _277  and  _278
REMARK  107  A    between atoms: _277  and  _280
REMARK  108  A    between atoms: _280  and  _281
REMARK  109  A    between atoms: _286  and  _287
REMARK  110  A    between atoms: _289  and  _291
REMARK  111  A    between atoms: _291  and  _292
REMARK  112  A    between atoms: _291  and  _294
REMARK  113  A    between atoms: _294  and  _295
REMARK  114  A    between atoms: _298  and  _300
REMARK  115  A    between atoms: _300  and  _301
REMARK  116  A    between atoms: _300  and  _303
REMARK  117  A    between atoms: _303  and  _304
REMARK  118  A    between atoms: _307  and  _309
REMARK  119  A    between atoms: _309  and  _310
REMARK  120  A    between atoms: _309  and  _312
REMARK  121  A    between atoms: _312  and  _313
REMARK  122  A    between atoms: _313  and  _314
REMARK  123  A    between atoms: _319  and  _321
REMARK  124  A    between atoms: _321  and  _322
REMARK  125  A    between atoms: _324  and  _326
REMARK  126  A    between atoms: _326  and  _327
REMARK  127  A    between atoms: _329  and  _331
REMARK  128  A    between atoms: _331  and  _332
REMARK  129  A    between atoms: _331  and  _334
REMARK  130  A    between atoms: _334  and  _335
REMARK  131  A    between atoms: _335  and  _336
REMARK  132  A    between atoms: _338  and  _340
REMARK  133  A    between atoms: _340  and  _341
REMARK  134  A    between atoms: _340  and  _343
REMARK  135  A    between atoms: _343  and  _344
REMARK  136  A    between atoms: _346  and  _348
REMARK  137  A    between atoms: _348  and  _349
REMARK  138  A    between atoms: _348  and  _351
REMARK  139  A    between atoms: _351  and  _352
REMARK  140  A    between atoms: _355  and  _357
REMARK  141  A    between atoms: _357  and  _358
REMARK  142  A    between atoms: _357  and  _360
REMARK  143  A    between atoms: _360  and  _361
REMARK  144  A    between atoms: _371  and  _373
REMARK  145  A    between atoms: _373  and  _374
REMARK  146  A    between atoms: _377  and  _379
REMARK  147  A    between atoms: _379  and  _380
REMARK  148  A    between atoms: _379  and  _382
REMARK  149  A    between atoms: _382  and  _383
REMARK  150  A    between atoms: _386  and  _388
REMARK  151  A    between atoms: _388  and  _389
REMARK  152  A    between atoms: _388  and  _391
REMARK  153  A    between atoms: _391  and  _392
REMARK  154  A    between atoms: _392  and  _393
REMARK  155  A    between atoms: _393  and  _394
REMARK                            x       y       z     vdW  Elec       q    Type
REMARK                         _______ _______ _______ _____ _____    ______ ____
ROOT
ATOM      1  O   HOH     1     -35.584 -14.512 -54.959  0.00  0.00    +0.000 OA
ENDROOT
TORSDOF 0
REMARK  Name = ../refined-set-2016/4azc/4azc_pocket.pdb
REMARK  155 active torsions:
REMARK  status: ('A' for Active; 'I' for Inactive)
REMARK    1  A    between atoms: _1  and  _3
REMARK    2  A    between atoms: _3  and  _4
REMARK    3  A    between atoms: _3  and  _6
REMARK    4  A    between atoms: _6  and  _7
REMARK    5  A    between atoms: _10  and  _12
REMARK    6  A    between atoms: _12  and  _13
REMARK    7  A    between atoms: _12  and  _15
REMARK    8  A    between atoms: _15  and  _16
REMARK    9  A    between atoms: _16  and  _17
REMARK   10  A    between atoms: _17  and  _18
REMARK   11  A    between atoms: _27  and  _29
REMARK   12  A    between atoms: _29  and  _30
REMARK   13  A    between atoms: _29  and  _32
REMARK   14  A    between atoms: _32  and  _33
REMARK   15  A    between atoms: _36  and  _38
REMARK   16  A    between atoms: _38  and  _39
REMARK   17  A    between atoms: _38  and  _41
REMARK   18  A    between atoms: _41  and  _42
REMARK   19  A    between atoms: _47  and  _49
REMARK   20  A    between atoms: _49  and  _50
REMARK   21  A    between atoms: _49  and  _52
REMARK   22  A    between atoms: _52  and  _53
REMARK   23  A    between atoms: _56  and  _58
REMARK   24  A    between atoms: _58  and  _59
REMARK   25  A    between atoms: _58  and  _61
REMARK   26  A    between atoms: _61  and  _62
REMARK   27  A    between atoms: _67  and  _69
REMARK   28  A    between atoms: _69  and  _70
REMARK   29  A    between atoms: _69  and  _72
REMARK   30  A    between atoms: _72  and  _73
REMARK   31  A    between atoms: _78  and  _80
REMARK   32  A    between atoms: _80  and  _81
REMARK   33  A    between atoms: _80  and  _83
REMARK   34  A    between atoms: _83  and  _84
REMARK   35  A    between atoms: _89  and  _91
REMARK   36  A    between atoms: _91  and  _92
REMARK   37  A    between atoms: _94  and  _96
REMARK   38  A    between atoms: _96  and  _97
REMARK   39  A    between atoms: _96  and  _99
REMARK   40  A    between atoms: _99  and  _100
REMARK   41  A    between atoms: _103  and  _105
REMARK   42  A    between atoms: _105  and  _106
REMARK   43  A    between atoms: _105  and  _108
REMARK   44  A    between atoms: _108  and  _109
REMARK   45  A    between atoms: _112  and  _114
REMARK   46  A    between atoms: _114  and  _115
REMARK   47  A    between atoms: _114  and  _117
REMARK   48  A    between atoms: _117  and  _118
REMARK   49  A    between atoms: _118  and  _119
REMARK   50  A    between atoms: _122  and  _124
REMARK   51  A    between atoms: _124  and  _125
REMARK   52  A    between atoms: _124  and  _127
REMARK   53  A    between atoms: _127  and  _128
REMARK   54  A    between atoms: _133  and  _135
REMARK   55  A    between atoms: _135  and  _136
REMARK   56  A    between atoms: _139  and  _141
REMARK   57  A    between atoms: _141  and  _142
REMARK   58  A    between atoms: _141  and  _144
REMARK   59  A    between atoms: _144  and  _145
REMARK   60  A    between atoms: _151  and  _153
REMARK   61  A    between atoms: _153  and  _154
REMARK   62  A    between atoms: _153  and  _156
REMARK   63  A    between atoms: _156  and  _157
REMARK   64  A    between atoms: _162  and  _164
REMARK   65  A    between atoms: _164  and  _165
REMARK   66  A    between atoms: _164  and  _167
REMARK   67  A    between atoms: _167  and  _168
REMARK   68  A    between atoms: _171  and  _173
REMARK   69  A    between atoms: _173  and  _174
REMARK   70  A    between atoms: _173  and  _176
REMARK   71  A    between atoms: _176  and  _177
REMARK   72  A    between atoms: _179  and  _181
REMARK   73  A    between atoms: _181  and  _182
REMARK   74  A    between atoms: _181  and  _184
REMARK   75  A    between atoms: _184  and  _185
REMARK   76  A    between atoms: _190  and  _191
REMARK   77  A    between atoms: _193  and  _195
REMARK   78  A    between atoms: _195  and  _196
REMARK   79  A    between atoms: _195  and  _198
REMARK   80  A    between atoms: _198  and  _199
REMARK   81  A    between atoms: _209  and  _211
REMARK   82  A    between atoms: _211  and  _212
REMARK   83  A    between atoms: _211  and  _214
REMARK   84  A    between atoms: _214  and  _215
REMARK   85  A    between atoms: _217  and  _219
REMARK   86  A    between atoms: _219  and  _220
REMARK   87  A    between atoms: _219  and  _222
REMARK   88  A    between atoms: _222  and  _223
REMARK   89  A    between atoms: _233  and  _235
REMARK   90  A    between atoms: _235  and  _236
REMARK   91  A    between atoms: _235  and  _238
REMARK   92  A    between atoms: _238  and  _239
REMARK   93  A    between atoms: _244  and  _245
REMARK   94  A    between atoms: _247  and  _249
REMARK   95  A    between atoms: _249  and  _250
REMARK   96  A    between atoms: _249  and  _252
REMARK   97  A    between atoms: _252  and  _253
REMARK   98  A    between atoms: _256  and  _258
REMARK   99  A    between atoms: _258  and  _259
REMARK  100  A    between atoms: _261  and  _263
REMARK  101  A    between atoms: _263  and  _264
REMARK  102  A    between atoms: _263  and  _266
REMARK  103  A    between atoms: _266  and  _267
REMARK  104  A    between atoms: _272  and  _273
REMARK  105  A    between atoms: _275  and  _277
REMARK  106  A    between atoms: _277  and  _278
REMARK  107  A    between atoms: _277  and  _280
REMARK  108  A    between atoms: _280  and  _281
REMARK  109  A    between atoms: _286  and  _287
REMARK  110  A    between atoms: _289  and  _291
REMARK  111  A    between atoms: _291  and  _292
REMARK  112  A    between atoms: _291  and  _294
REMARK  113  A    between atoms: _294  and  _295
REMARK  114  A    between atoms: _298  and  _300
REMARK  115  A    between atoms: _300  and  _301
REMARK  116  A    between atoms: _300  and  _303
REMARK  117  A    between atoms: _303  and  _304
REMARK  118  A    between atoms: _307  and  _309
REMARK  119  A    between atoms: _309  and  _310
REMARK  120  A    between atoms: _309  and  _312
REMARK  121  A    between atoms: _312  and  _313
REMARK  122  A    between atoms: _313  and  _314
REMARK  123  A    between atoms: _319  and  _321
REMARK  124  A    between atoms: _321  and  _322
REMARK  125  A    between atoms: _324  and  _326
REMARK  126  A    between atoms: _326  and  _327
REMARK  127  A    between atoms: _329  and  _331
REMARK  128  A    between atoms: _331  and  _332
REMARK  129  A    between atoms: _331  and  _334
REMARK  130  A    between atoms: _334  and  _335
REMARK  131  A    between atoms: _335  and  _336
REMARK  132  A    between atoms: _338  and  _340
REMARK  133  A    between atoms: _340  and  _341
REMARK  134  A    between atoms: _340  and  _343
REMARK  135  A    between atoms: _343  and  _344
REMARK  136  A    between atoms: _346  and  _348
REMARK  137  A    between atoms: _348  and  _349
REMARK  138  A    between atoms: _348  and  _351
REMARK  139  A    between atoms: _351  and  _352
REMARK  140  A    between atoms: _355  and  _357
REMARK  141  A    between atoms: _357  and  _358
REMARK  142  A    between atoms: _357  and  _360
REMARK  143  A    between atoms: _360  and  _361
REMARK  144  A    between atoms: _371  and  _373
REMARK  145  A    between atoms: _373  and  _374
REMARK  146  A    between atoms: _377  and  _379
REMARK  147  A    between atoms: _379  and  _380
REMARK  148  A    between atoms: _379  and  _382
REMARK  149  A    between atoms: _382  and  _383
REMARK  150  A    between atoms: _386  and  _388
REMARK  151  A    between atoms: _388  and  _389
REMARK  152  A    between atoms: _388  and  _391
REMARK  153  A    between atoms: _391  and  _392
REMARK  154  A    between atoms: _392  and  _393
REMARK  155  A    between atoms: _393  and  _394
REMARK                            x       y       z     vdW  Elec       q    Type
REMARK                         _______ _______ _______ _____ _____    ______ ____
ROOT
ATOM      1  O   HOH     1     -36.812 -19.349 -53.565  0.00  0.00    +0.000 OA
ENDROOT
TORSDOF 0
REMARK  Name = ../refined-set-2016/4azc/4azc_pocket.pdb
REMARK  155 active torsions:
REMARK  status: ('A' for Active; 'I' for Inactive)
REMARK    1  A    between atoms: _1  and  _3
REMARK    2  A    between atoms: _3  and  _4
REMARK    3  A    between atoms: _3  and  _6
REMARK    4  A    between atoms: _6  and  _7
REMARK    5  A    between atoms: _10  and  _12
REMARK    6  A    between atoms: _12  and  _13
REMARK    7  A    between atoms: _12  and  _15
REMARK    8  A    between atoms: _15  and  _16
REMARK    9  A    between atoms: _16  and  _17
REMARK   10  A    between atoms: _17  and  _18
REMARK   11  A    between atoms: _27  and  _29
REMARK   12  A    between atoms: _29  and  _30
REMARK   13  A    between atoms: _29  and  _32
REMARK   14  A    between atoms: _32  and  _33
REMARK   15  A    between atoms: _36  and  _38
REMARK   16  A    between atoms: _38  and  _39
REMARK   17  A    between atoms: _38  and  _41
REMARK   18  A    between atoms: _41  and  _42
REMARK   19  A    between atoms: _47  and  _49
REMARK   20  A    between atoms: _49  and  _50
REMARK   21  A    between atoms: _49  and  _52
REMARK   22  A    between atoms: _52  and  _53
REMARK   23  A    between atoms: _56  and  _58
REMARK   24  A    between atoms: _58  and  _59
REMARK   25  A    between atoms: _58  and  _61
REMARK   26  A    between atoms: _61  and  _62
REMARK   27  A    between atoms: _67  and  _69
REMARK   28  A    between atoms: _69  and  _70
REMARK   29  A    between atoms: _69  and  _72
REMARK   30  A    between atoms: _72  and  _73
REMARK   31  A    between atoms: _78  and  _80
REMARK   32  A    between atoms: _80  and  _81
REMARK   33  A    between atoms: _80  and  _83
REMARK   34  A    between atoms: _83  and  _84
REMARK   35  A    between atoms: _89  and  _91
REMARK   36  A    between atoms: _91  and  _92
REMARK   37  A    between atoms: _94  and  _96
REMARK   38  A    between atoms: _96  and  _97
REMARK   39  A    between atoms: _96  and  _99
REMARK   40  A    between atoms: _99  and  _100
REMARK   41  A    between atoms: _103  and  _105
REMARK   42  A    between atoms: _105  and  _106
REMARK   43  A    between atoms: _105  and  _108
REMARK   44  A    between atoms: _108  and  _109
REMARK   45  A    between atoms: _112  and  _114
REMARK   46  A    between atoms: _114  and  _115
REMARK   47  A    between atoms: _114  and  _117
REMARK   48  A    between atoms: _117  and  _118
REMARK   49  A    between atoms: _118  and  _119
REMARK   50  A    between atoms: _122  and  _124
REMARK   51  A    between atoms: _124  and  _125
REMARK   52  A    between atoms: _124  and  _127
REMARK   53  A    between atoms: _127  and  _128
REMARK   54  A    between atoms: _133  and  _135
REMARK   55  A    between atoms: _135  and  _136
REMARK   56  A    between atoms: _139  and  _141
REMARK   57  A    between atoms: _141  and  _142
REMARK   58  A    between atoms: _141  and  _144
REMARK   59  A    between atoms: _144  and  _145
REMARK   60  A    between atoms: _151  and  _153
REMARK   61  A    between atoms: _153  and  _154
REMARK   62  A    between atoms: _153  and  _156
REMARK   63  A    between atoms: _156  and  _157
REMARK   64  A    between atoms: _162  and  _164
REMARK   65  A    between atoms: _164  and  _165
REMARK   66  A    between atoms: _164  and  _167
REMARK   67  A    between atoms: _167  and  _168
REMARK   68  A    between atoms: _171  and  _173
REMARK   69  A    between atoms: _173  and  _174
REMARK   70  A    between atoms: _173  and  _176
REMARK   71  A    between atoms: _176  and  _177
REMARK   72  A    between atoms: _179  and  _181
REMARK   73  A    between atoms: _181  and  _182
REMARK   74  A    between atoms: _181  and  _184
REMARK   75  A    between atoms: _184  and  _185
REMARK   76  A    between atoms: _190  and  _191
REMARK   77  A    between atoms: _193  and  _195
REMARK   78  A    between atoms: _195  and  _196
REMARK   79  A    between atoms: _195  and  _198
REMARK   80  A    between atoms: _198  and  _199
REMARK   81  A    between atoms: _209  and  _211
REMARK   82  A    between atoms: _211  and  _212
REMARK   83  A    between atoms: _211  and  _214
REMARK   84  A    between atoms: _214  and  _215
REMARK   85  A    between atoms: _217  and  _219
REMARK   86  A    between atoms: _219  and  _220
REMARK   87  A    between atoms: _219  and  _222
REMARK   88  A    between atoms: _222  and  _223
REMARK   89  A    between atoms: _233  and  _235
REMARK   90  A    between atoms: _235  and  _236
REMARK   91  A    between atoms: _235  and  _238
REMARK   92  A    between atoms: _238  and  _239
REMARK   93  A    between atoms: _244  and  _245
REMARK   94  A    between atoms: _247  and  _249
REMARK   95  A    between atoms: _249  and  _250
REMARK   96  A    between atoms: _249  and  _252
REMARK   97  A    between atoms: _252  and  _253
REMARK   98  A    between atoms: _256  and  _258
REMARK   99  A    between atoms: _258  and  _259
REMARK  100  A    between atoms: _261  and  _263
REMARK  101  A    between atoms: _263  and  _264
REMARK  102  A    between atoms: _263  and  _266
REMARK  103  A    between atoms: _266  and  _267
REMARK  104  A    between atoms: _272  and  _273
REMARK  105  A    between atoms: _275  and  _277
REMARK  106  A    between atoms: _277  and  _278
REMARK  107  A    between atoms: _277  and  _280
REMARK  108  A    between atoms: _280  and  _281
REMARK  109  A    between atoms: _286  and  _287
REMARK  110  A    between atoms: _289  and  _291
REMARK  111  A    between atoms: _291  and  _292
REMARK  112  A    between atoms: _291  and  _294
REMARK  113  A    between atoms: _294  and  _295
REMARK  114  A    between atoms: _298  and  _300
REMARK  115  A    between atoms: _300  and  _301
REMARK  116  A    between atoms: _300  and  _303
REMARK  117  A    between atoms: _303  and  _304
REMARK  118  A    between atoms: _307  and  _309
REMARK  119  A    between atoms: _309  and  _310
REMARK  120  A    between atoms: _309  and  _312
REMARK  121  A    between atoms: _312  and  _313
REMARK  122  A    between atoms: _313  and  _314
REMARK  123  A    between atoms: _319  and  _321
REMARK  124  A    between atoms: _321  and  _322
REMARK  125  A    between atoms: _324  and  _326
REMARK  126  A    between atoms: _326  and  _327
REMARK  127  A    between atoms: _329  and  _331
REMARK  128  A    between atoms: _331  and  _332
REMARK  129  A    between atoms: _331  and  _334
REMARK  130  A    between atoms: _334  and  _335
REMARK  131  A    between atoms: _335  and  _336
REMARK  132  A    between atoms: _338  and  _340
REMARK  133  A    between atoms: _340  and  _341
REMARK  134  A    between atoms: _340  and  _343
REMARK  135  A    between atoms: _343  and  _344
REMARK  136  A    between atoms: _346  and  _348
REMARK  137  A    between atoms: _348  and  _349
REMARK  138  A    between atoms: _348  and  _351
REMARK  139  A    between atoms: _351  and  _352
REMARK  140  A    between atoms: _355  and  _357
REMARK  141  A    between atoms: _357  and  _358
REMARK  142  A    between atoms: _357  and  _360
REMARK  143  A    between atoms: _360  and  _361
REMARK  144  A    between atoms: _371  and  _373
REMARK  145  A    between atoms: _373  and  _374
REMARK  146  A    between atoms: _377  and  _379
REMARK  147  A    between atoms: _379  and  _380
REMARK  148  A    between atoms: _379  and  _382
REMARK  149  A    between atoms: _382  and  _383
REMARK  150  A    between atoms: _386  and  _388
REMARK  151  A    between atoms: _388  and  _389
REMARK  152  A    between atoms: _388  and  _391
REMARK  153  A    between atoms: _391  and  _392
REMARK  154  A    between atoms: _392  and  _393
REMARK  155  A    between atoms: _393  and  _394
REMARK                            x       y       z     vdW  Elec       q    Type
REMARK                         _______ _______ _______ _____ _____    ______ ____
ROOT
ATOM      1  O   HOH     1     -37.953 -28.237 -58.579  0.00  0.00    +0.000 OA
ENDROOT
TORSDOF 0
REMARK  Name = ../refined-set-2016/4azc/4azc_pocket.pdb
REMARK  155 active torsions:
REMARK  status: ('A' for Active; 'I' for Inactive)
REMARK    1  A    between atoms: _1  and  _3
REMARK    2  A    between atoms: _3  and  _4
REMARK    3  A    between atoms: _3  and  _6
REMARK    4  A    between atoms: _6  and  _7
REMARK    5  A    between atoms: _10  and  _12
REMARK    6  A    between atoms: _12  and  _13
REMARK    7  A    between atoms: _12  and  _15
REMARK    8  A    between atoms: _15  and  _16
REMARK    9  A    between atoms: _16  and  _17
REMARK   10  A    between atoms: _17  and  _18
REMARK   11  A    between atoms: _27  and  _29
REMARK   12  A    between atoms: _29  and  _30
REMARK   13  A    between atoms: _29  and  _32
REMARK   14  A    between atoms: _32  and  _33
REMARK   15  A    between atoms: _36  and  _38
REMARK   16  A    between atoms: _38  and  _39
REMARK   17  A    between atoms: _38  and  _41
REMARK   18  A    between atoms: _41  and  _42
REMARK   19  A    between atoms: _47  and  _49
REMARK   20  A    between atoms: _49  and  _50
REMARK   21  A    between atoms: _49  and  _52
REMARK   22  A    between atoms: _52  and  _53
REMARK   23  A    between atoms: _56  and  _58
REMARK   24  A    between atoms: _58  and  _59
REMARK   25  A    between atoms: _58  and  _61
REMARK   26  A    between atoms: _61  and  _62
REMARK   27  A    between atoms: _67  and  _69
REMARK   28  A    between atoms: _69  and  _70
REMARK   29  A    between atoms: _69  and  _72
REMARK   30  A    between atoms: _72  and  _73
REMARK   31  A    between atoms: _78  and  _80
REMARK   32  A    between atoms: _80  and  _81
REMARK   33  A    between atoms: _80  and  _83
REMARK   34  A    between atoms: _83  and  _84
REMARK   35  A    between atoms: _89  and  _91
REMARK   36  A    between atoms: _91  and  _92
REMARK   37  A    between atoms: _94  and  _96
REMARK   38  A    between atoms: _96  and  _97
REMARK   39  A    between atoms: _96  and  _99
REMARK   40  A    between atoms: _99  and  _100
REMARK   41  A    between atoms: _103  and  _105
REMARK   42  A    between atoms: _105  and  _106
REMARK   43  A    between atoms: _105  and  _108
REMARK   44  A    between atoms: _108  and  _109
REMARK   45  A    between atoms: _112  and  _114
REMARK   46  A    between atoms: _114  and  _115
REMARK   47  A    between atoms: _114  and  _117
REMARK   48  A    between atoms: _117  and  _118
REMARK   49  A    between atoms: _118  and  _119
REMARK   50  A    between atoms: _122  and  _124
REMARK   51  A    between atoms: _124  and  _125
REMARK   52  A    between atoms: _124  and  _127
REMARK   53  A    between atoms: _127  and  _128
REMARK   54  A    between atoms: _133  and  _135
REMARK   55  A    between atoms: _135  and  _136
REMARK   56  A    between atoms: _139  and  _141
REMARK   57  A    between atoms: _141  and  _142
REMARK   58  A    between atoms: _141  and  _144
REMARK   59  A    between atoms: _144  and  _145
REMARK   60  A    between atoms: _151  and  _153
REMARK   61  A    between atoms: _153  and  _154
REMARK   62  A    between atoms: _153  and  _156
REMARK   63  A    between atoms: _156  and  _157
REMARK   64  A    between atoms: _162  and  _164
REMARK   65  A    between atoms: _164  and  _165
REMARK   66  A    between atoms: _164  and  _167
REMARK   67  A    between atoms: _167  and  _168
REMARK   68  A    between atoms: _171  and  _173
REMARK   69  A    between atoms: _173  and  _174
REMARK   70  A    between atoms: _173  and  _176
REMARK   71  A    between atoms: _176  and  _177
REMARK   72  A    between atoms: _179  and  _181
REMARK   73  A    between atoms: _181  and  _182
REMARK   74  A    between atoms: _181  and  _184
REMARK   75  A    between atoms: _184  and  _185
REMARK   76  A    between atoms: _190  and  _191
REMARK   77  A    between atoms: _193  and  _195
REMARK   78  A    between atoms: _195  and  _196
REMARK   79  A    between atoms: _195  and  _198
REMARK   80  A    between atoms: _198  and  _199
REMARK   81  A    between atoms: _209  and  _211
REMARK   82  A    between atoms: _211  and  _212
REMARK   83  A    between atoms: _211  and  _214
REMARK   84  A    between atoms: _214  and  _215
REMARK   85  A    between atoms: _217  and  _219
REMARK   86  A    between atoms: _219  and  _220
REMARK   87  A    between atoms: _219  and  _222
REMARK   88  A    between atoms: _222  and  _223
REMARK   89  A    between atoms: _233  and  _235
REMARK   90  A    between atoms: _235  and  _236
REMARK   91  A    between atoms: _235  and  _238
REMARK   92  A    between atoms: _238  and  _239
REMARK   93  A    between atoms: _244  and  _245
REMARK   94  A    between atoms: _247  and  _249
REMARK   95  A    between atoms: _249  and  _250
REMARK   96  A    between atoms: _249  and  _252
REMARK   97  A    between atoms: _252  and  _253
REMARK   98  A    between atoms: _256  and  _258
REMARK   99  A    between atoms: _258  and  _259
REMARK  100  A    between atoms: _261  and  _263
REMARK  101  A    between atoms: _263  and  _264
REMARK  102  A    between atoms: _263  and  _266
REMARK  103  A    between atoms: _266  and  _267
REMARK  104  A    between atoms: _272  and  _273
REMARK  105  A    between atoms: _275  and  _277
REMARK  106  A    between atoms: _277  and  _278
REMARK  107  A    between atoms: _277  and  _280
REMARK  108  A    between atoms: _280  and  _281
REMARK  109  A    between atoms: _286  and  _287
REMARK  110  A    between atoms: _289  and  _291
REMARK  111  A    between atoms: _291  and  _292
REMARK  112  A    between atoms: _291  and  _294
REMARK  113  A    between atoms: _294  and  _295
REMARK  114  A    between atoms: _298  and  _300
REMARK  115  A    between atoms: _300  and  _301
REMARK  116  A    between atoms: _300  and  _303
REMARK  117  A    between atoms: _303  and  _304
REMARK  118  A    between atoms: _307  and  _309
REMARK  119  A    between atoms: _309  and  _310
REMARK  120  A    between atoms: _309  and  _312
REMARK  121  A    between atoms: _312  and  _313
REMARK  122  A    between atoms: _313  and  _314
REMARK  123  A    between atoms: _319  and  _321
REMARK  124  A    between atoms: _321  and  _322
REMARK  125  A    between atoms: _324  and  _326
REMARK  126  A    between atoms: _326  and  _327
REMARK  127  A    between atoms: _329  and  _331
REMARK  128  A    between atoms: _331  and  _332
REMARK  129  A    between atoms: _331  and  _334
REMARK  130  A    between atoms: _334  and  _335
REMARK  131  A    between atoms: _335  and  _336
REMARK  132  A    between atoms: _338  and  _340
REMARK  133  A    between atoms: _340  and  _341
REMARK  134  A    between atoms: _340  and  _343
REMARK  135  A    between atoms: _343  and  _344
REMARK  136  A    between atoms: _346  and  _348
REMARK  137  A    between atoms: _348  and  _349
REMARK  138  A    between atoms: _348  and  _351
REMARK  139  A    between atoms: _351  and  _352
REMARK  140  A    between atoms: _355  and  _357
REMARK  141  A    between atoms: _357  and  _358
REMARK  142  A    between atoms: _357  and  _360
REMARK  143  A    between atoms: _360  and  _361
REMARK  144  A    between atoms: _371  and  _373
REMARK  145  A    between atoms: _373  and  _374
REMARK  146  A    between atoms: _377  and  _379
REMARK  147  A    between atoms: _379  and  _380
REMARK  148  A    between atoms: _379  and  _382
REMARK  149  A    between atoms: _382  and  _383
REMARK  150  A    between atoms: _386  and  _388
REMARK  151  A    between atoms: _388  and  _389
REMARK  152  A    between atoms: _388  and  _391
REMARK  153  A    between atoms: _391  and  _392
REMARK  154  A    between atoms: _392  and  _393
REMARK  155  A    between atoms: _393  and  _394
REMARK                            x       y       z     vdW  Elec       q    Type
REMARK                         _______ _______ _______ _____ _____    ______ ____
ROOT
ATOM      1  O   HOH     1     -39.408 -19.637 -57.088  0.00  0.00    +0.000 OA
ENDROOT
TORSDOF 0
REMARK  Name = ../refined-set-2016/4azc/4azc_pocket.pdb
REMARK  155 active torsions:
REMARK  status: ('A' for Active; 'I' for Inactive)
REMARK    1  A    between atoms: _1  and  _3
REMARK    2  A    between atoms: _3  and  _4
REMARK    3  A    between atoms: _3  and  _6
REMARK    4  A    between atoms: _6  and  _7
REMARK    5  A    between atoms: _10  and  _12
REMARK    6  A    between atoms: _12  and  _13
REMARK    7  A    between atoms: _12  and  _15
REMARK    8  A    between atoms: _15  and  _16
REMARK    9  A    between atoms: _16  and  _17
REMARK   10  A    between atoms: _17  and  _18
REMARK   11  A    between atoms: _27  and  _29
REMARK   12  A    between atoms: _29  and  _30
REMARK   13  A    between atoms: _29  and  _32
REMARK   14  A    between atoms: _32  and  _33
REMARK   15  A    between atoms: _36  and  _38
REMARK   16  A    between atoms: _38  and  _39
REMARK   17  A    between atoms: _38  and  _41
REMARK   18  A    between atoms: _41  and  _42
REMARK   19  A    between atoms: _47  and  _49
REMARK   20  A    between atoms: _49  and  _50
REMARK   21  A    between atoms: _49  and  _52
REMARK   22  A    between atoms: _52  and  _53
REMARK   23  A    between atoms: _56  and  _58
REMARK   24  A    between atoms: _58  and  _59
REMARK   25  A    between atoms: _58  and  _61
REMARK   26  A    between atoms: _61  and  _62
REMARK   27  A    between atoms: _67  and  _69
REMARK   28  A    between atoms: _69  and  _70
REMARK   29  A    between atoms: _69  and  _72
REMARK   30  A    between atoms: _72  and  _73
REMARK   31  A    between atoms: _78  and  _80
REMARK   32  A    between atoms: _80  and  _81
REMARK   33  A    between atoms: _80  and  _83
REMARK   34  A    between atoms: _83  and  _84
REMARK   35  A    between atoms: _89  and  _91
REMARK   36  A    between atoms: _91  and  _92
REMARK   37  A    between atoms: _94  and  _96
REMARK   38  A    between atoms: _96  and  _97
REMARK   39  A    between atoms: _96  and  _99
REMARK   40  A    between atoms: _99  and  _100
REMARK   41  A    between atoms: _103  and  _105
REMARK   42  A    between atoms: _105  and  _106
REMARK   43  A    between atoms: _105  and  _108
REMARK   44  A    between atoms: _108  and  _109
REMARK   45  A    between atoms: _112  and  _114
REMARK   46  A    between atoms: _114  and  _115
REMARK   47  A    between atoms: _114  and  _117
REMARK   48  A    between atoms: _117  and  _118
REMARK   49  A    between atoms: _118  and  _119
REMARK   50  A    between atoms: _122  and  _124
REMARK   51  A    between atoms: _124  and  _125
REMARK   52  A    between atoms: _124  and  _127
REMARK   53  A    between atoms: _127  and  _128
REMARK   54  A    between atoms: _133  and  _135
REMARK   55  A    between atoms: _135  and  _136
REMARK   56  A    between atoms: _139  and  _141
REMARK   57  A    between atoms: _141  and  _142
REMARK   58  A    between atoms: _141  and  _144
REMARK   59  A    between atoms: _144  and  _145
REMARK   60  A    between atoms: _151  and  _153
REMARK   61  A    between atoms: _153  and  _154
REMARK   62  A    between atoms: _153  and  _156
REMARK   63  A    between atoms: _156  and  _157
REMARK   64  A    between atoms: _162  and  _164
REMARK   65  A    between atoms: _164  and  _165
REMARK   66  A    between atoms: _164  and  _167
REMARK   67  A    between atoms: _167  and  _168
REMARK   68  A    between atoms: _171  and  _173
REMARK   69  A    between atoms: _173  and  _174
REMARK   70  A    between atoms: _173  and  _176
REMARK   71  A    between atoms: _176  and  _177
REMARK   72  A    between atoms: _179  and  _181
REMARK   73  A    between atoms: _181  and  _182
REMARK   74  A    between atoms: _181  and  _184
REMARK   75  A    between atoms: _184  and  _185
REMARK   76  A    between atoms: _190  and  _191
REMARK   77  A    between atoms: _193  and  _195
REMARK   78  A    between atoms: _195  and  _196
REMARK   79  A    between atoms: _195  and  _198
REMARK   80  A    between atoms: _198  and  _199
REMARK   81  A    between atoms: _209  and  _211
REMARK   82  A    between atoms: _211  and  _212
REMARK   83  A    between atoms: _211  and  _214
REMARK   84  A    between atoms: _214  and  _215
REMARK   85  A    between atoms: _217  and  _219
REMARK   86  A    between atoms: _219  and  _220
REMARK   87  A    between atoms: _219  and  _222
REMARK   88  A    between atoms: _222  and  _223
REMARK   89  A    between atoms: _233  and  _235
REMARK   90  A    between atoms: _235  and  _236
REMARK   91  A    between atoms: _235  and  _238
REMARK   92  A    between atoms: _238  and  _239
REMARK   93  A    between atoms: _244  and  _245
REMARK   94  A    between atoms: _247  and  _249
REMARK   95  A    between atoms: _249  and  _250
REMARK   96  A    between atoms: _249  and  _252
REMARK   97  A    between atoms: _252  and  _253
REMARK   98  A    between atoms: _256  and  _258
REMARK   99  A    between atoms: _258  and  _259
REMARK  100  A    between atoms: _261  and  _263
REMARK  101  A    between atoms: _263  and  _264
REMARK  102  A    between atoms: _263  and  _266
REMARK  103  A    between atoms: _266  and  _267
REMARK  104  A    between atoms: _272  and  _273
REMARK  105  A    between atoms: _275  and  _277
REMARK  106  A    between atoms: _277  and  _278
REMARK  107  A    between atoms: _277  and  _280
REMARK  108  A    between atoms: _280  and  _281
REMARK  109  A    between atoms: _286  and  _287
REMARK  110  A    between atoms: _289  and  _291
REMARK  111  A    between atoms: _291  and  _292
REMARK  112  A    between atoms: _291  and  _294
REMARK  113  A    between atoms: _294  and  _295
REMARK  114  A    between atoms: _298  and  _300
REMARK  115  A    between atoms: _300  and  _301
REMARK  116  A    between atoms: _300  and  _303
REMARK  117  A    between atoms: _303  and  _304
REMARK  118  A    between atoms: _307  and  _309
REMARK  119  A    between atoms: _309  and  _310
REMARK  120  A    between atoms: _309  and  _312
REMARK  121  A    between atoms: _312  and  _313
REMARK  122  A    between atoms: _313  and  _314
REMARK  123  A    between atoms: _319  and  _321
REMARK  124  A    between atoms: _321  and  _322
REMARK  125  A    between atoms: _324  and  _326
REMARK  126  A    between atoms: _326  and  _327
REMARK  127  A    between atoms: _329  and  _331
REMARK  128  A    between atoms: _331  and  _332
REMARK  129  A    between atoms: _331  and  _334
REMARK  130  A    between atoms: _334  and  _335
REMARK  131  A    between atoms: _335  and  _336
REMARK  132  A    between atoms: _338  and  _340
REMARK  133  A    between atoms: _340  and  _341
REMARK  134  A    between atoms: _340  and  _343
REMARK  135  A    between atoms: _343  and  _344
REMARK  136  A    between atoms: _346  and  _348
REMARK  137  A    between atoms: _348  and  _349
REMARK  138  A    between atoms: _348  and  _351
REMARK  139  A    between atoms: _351  and  _352
REMARK  140  A    between atoms: _355  and  _357
REMARK  141  A    between atoms: _357  and  _358
REMARK  142  A    between atoms: _357  and  _360
REMARK  143  A    between atoms: _360  and  _361
REMARK  144  A    between atoms: _371  and  _373
REMARK  145  A    between atoms: _373  and  _374
REMARK  146  A    between atoms: _377  and  _379
REMARK  147  A    between atoms: _379  and  _380
REMARK  148  A    between atoms: _379  and  _382
REMARK  149  A    between atoms: _382  and  _383
REMARK  150  A    between atoms: _386  and  _388
REMARK  151  A    between atoms: _388  and  _389
REMARK  152  A    between atoms: _388  and  _391
REMARK  153  A    between atoms: _391  and  _392
REMARK  154  A    between atoms: _392  and  _393
REMARK  155  A    between atoms: _393  and  _394
REMARK                            x       y       z     vdW  Elec       q    Type
REMARK                         _______ _______ _______ _____ _____    ______ ____
ROOT
ATOM      1  O   HOH     1     -33.552 -21.411 -44.003  0.00  0.00    +0.000 OA
ENDROOT
TORSDOF 0
REMARK  Name = ../refined-set-2016/4azc/4azc_pocket.pdb
REMARK  155 active torsions:
REMARK  status: ('A' for Active; 'I' for Inactive)
REMARK    1  A    between atoms: _1  and  _3
REMARK    2  A    between atoms: _3  and  _4
REMARK    3  A    between atoms: _3  and  _6
REMARK    4  A    between atoms: _6  and  _7
REMARK    5  A    between atoms: _10  and  _12
REMARK    6  A    between atoms: _12  and  _13
REMARK    7  A    between atoms: _12  and  _15
REMARK    8  A    between atoms: _15  and  _16
REMARK    9  A    between atoms: _16  and  _17
REMARK   10  A    between atoms: _17  and  _18
REMARK   11  A    between atoms: _27  and  _29
REMARK   12  A    between atoms: _29  and  _30
REMARK   13  A    between atoms: _29  and  _32
REMARK   14  A    between atoms: _32  and  _33
REMARK   15  A    between atoms: _36  and  _38
REMARK   16  A    between atoms: _38  and  _39
REMARK   17  A    between atoms: _38  and  _41
REMARK   18  A    between atoms: _41  and  _42
REMARK   19  A    between atoms: _47  and  _49
REMARK   20  A    between atoms: _49  and  _50
REMARK   21  A    between atoms: _49  and  _52
REMARK   22  A    between atoms: _52  and  _53
REMARK   23  A    between atoms: _56  and  _58
REMARK   24  A    between atoms: _58  and  _59
REMARK   25  A    between atoms: _58  and  _61
REMARK   26  A    between atoms: _61  and  _62
REMARK   27  A    between atoms: _67  and  _69
REMARK   28  A    between atoms: _69  and  _70
REMARK   29  A    between atoms: _69  and  _72
REMARK   30  A    between atoms: _72  and  _73
REMARK   31  A    between atoms: _78  and  _80
REMARK   32  A    between atoms: _80  and  _81
REMARK   33  A    between atoms: _80  and  _83
REMARK   34  A    between atoms: _83  and  _84
REMARK   35  A    between atoms: _89  and  _91
REMARK   36  A    between atoms: _91  and  _92
REMARK   37  A    between atoms: _94  and  _96
REMARK   38  A    between atoms: _96  and  _97
REMARK   39  A    between atoms: _96  and  _99
REMARK   40  A    between atoms: _99  and  _100
REMARK   41  A    between atoms: _103  and  _105
REMARK   42  A    between atoms: _105  and  _106
REMARK   43  A    between atoms: _105  and  _108
REMARK   44  A    between atoms: _108  and  _109
REMARK   45  A    between atoms: _112  and  _114
REMARK   46  A    between atoms: _114  and  _115
REMARK   47  A    between atoms: _114  and  _117
REMARK   48  A    between atoms: _117  and  _118
REMARK   49  A    between atoms: _118  and  _119
REMARK   50  A    between atoms: _122  and  _124
REMARK   51  A    between atoms: _124  and  _125
REMARK   52  A    between atoms: _124  and  _127
REMARK   53  A    between atoms: _127  and  _128
REMARK   54  A    between atoms: _133  and  _135
REMARK   55  A    between atoms: _135  and  _136
REMARK   56  A    between atoms: _139  and  _141
REMARK   57  A    between atoms: _141  and  _142
REMARK   58  A    between atoms: _141  and  _144
REMARK   59  A    between atoms: _144  and  _145
REMARK   60  A    between atoms: _151  and  _153
REMARK   61  A    between atoms: _153  and  _154
REMARK   62  A    between atoms: _153  and  _156
REMARK   63  A    between atoms: _156  and  _157
REMARK   64  A    between atoms: _162  and  _164
REMARK   65  A    between atoms: _164  and  _165
REMARK   66  A    between atoms: _164  and  _167
REMARK   67  A    between atoms: _167  and  _168
REMARK   68  A    between atoms: _171  and  _173
REMARK   69  A    between atoms: _173  and  _174
REMARK   70  A    between atoms: _173  and  _176
REMARK   71  A    between atoms: _176  and  _177
REMARK   72  A    between atoms: _179  and  _181
REMARK   73  A    between atoms: _181  and  _182
REMARK   74  A    between atoms: _181  and  _184
REMARK   75  A    between atoms: _184  and  _185
REMARK   76  A    between atoms: _190  and  _191
REMARK   77  A    between atoms: _193  and  _195
REMARK   78  A    between atoms: _195  and  _196
REMARK   79  A    between atoms: _195  and  _198
REMARK   80  A    between atoms: _198  and  _199
REMARK   81  A    between atoms: _209  and  _211
REMARK   82  A    between atoms: _211  and  _212
REMARK   83  A    between atoms: _211  and  _214
REMARK   84  A    between atoms: _214  and  _215
REMARK   85  A    between atoms: _217  and  _219
REMARK   86  A    between atoms: _219  and  _220
REMARK   87  A    between atoms: _219  and  _222
REMARK   88  A    between atoms: _222  and  _223
REMARK   89  A    between atoms: _233  and  _235
REMARK   90  A    between atoms: _235  and  _236
REMARK   91  A    between atoms: _235  and  _238
REMARK   92  A    between atoms: _238  and  _239
REMARK   93  A    between atoms: _244  and  _245
REMARK   94  A    between atoms: _247  and  _249
REMARK   95  A    between atoms: _249  and  _250
REMARK   96  A    between atoms: _249  and  _252
REMARK   97  A    between atoms: _252  and  _253
REMARK   98  A    between atoms: _256  and  _258
REMARK   99  A    between atoms: _258  and  _259
REMARK  100  A    between atoms: _261  and  _263
REMARK  101  A    between atoms: _263  and  _264
REMARK  102  A    between atoms: _263  and  _266
REMARK  103  A    between atoms: _266  and  _267
REMARK  104  A    between atoms: _272  and  _273
REMARK  105  A    between atoms: _275  and  _277
REMARK  106  A    between atoms: _277  and  _278
REMARK  107  A    between atoms: _277  and  _280
REMARK  108  A    between atoms: _280  and  _281
REMARK  109  A    between atoms: _286  and  _287
REMARK  110  A    between atoms: _289  and  _291
REMARK  111  A    between atoms: _291  and  _292
REMARK  112  A    between atoms: _291  and  _294
REMARK  113  A    between atoms: _294  and  _295
REMARK  114  A    between atoms: _298  and  _300
REMARK  115  A    between atoms: _300  and  _301
REMARK  116  A    between atoms: _300  and  _303
REMARK  117  A    between atoms: _303  and  _304
REMARK  118  A    between atoms: _307  and  _309
REMARK  119  A    between atoms: _309  and  _310
REMARK  120  A    between atoms: _309  and  _312
REMARK  121  A    between atoms: _312  and  _313
REMARK  122  A    between atoms: _313  and  _314
REMARK  123  A    between atoms: _319  and  _321
REMARK  124  A    between atoms: _321  and  _322
REMARK  125  A    between atoms: _324  and  _326
REMARK  126  A    between atoms: _326  and  _327
REMARK  127  A    between atoms: _329  and  _331
REMARK  128  A    between atoms: _331  and  _332
REMARK  129  A    between atoms: _331  and  _334
REMARK  130  A    between atoms: _334  and  _335
REMARK  131  A    between atoms: _335  and  _336
REMARK  132  A    between atoms: _338  and  _340
REMARK  133  A    between atoms: _340  and  _341
REMARK  134  A    between atoms: _340  and  _343
REMARK  135  A    between atoms: _343  and  _344
REMARK  136  A    between atoms: _346  and  _348
REMARK  137  A    between atoms: _348  and  _349
REMARK  138  A    between atoms: _348  and  _351
REMARK  139  A    between atoms: _351  and  _352
REMARK  140  A    between atoms: _355  and  _357
REMARK  141  A    between atoms: _357  and  _358
REMARK  142  A    between atoms: _357  and  _360
REMARK  143  A    between atoms: _360  and  _361
REMARK  144  A    between atoms: _371  and  _373
REMARK  145  A    between atoms: _373  and  _374
REMARK  146  A    between atoms: _377  and  _379
REMARK  147  A    between atoms: _379  and  _380
REMARK  148  A    between atoms: _379  and  _382
REMARK  149  A    between atoms: _382  and  _383
REMARK  150  A    between atoms: _386  and  _388
REMARK  151  A    between atoms: _388  and  _389
REMARK  152  A    between atoms: _388  and  _391
REMARK  153  A    between atoms: _391  and  _392
REMARK  154  A    between atoms: _392  and  _393
REMARK  155  A    between atoms: _393  and  _394
REMARK                            x       y       z     vdW  Elec       q    Type
REMARK                         _______ _______ _______ _____ _____    ______ ____
ROOT
ATOM      1  O   HOH     1     -40.253 -22.964 -48.859  0.00  0.00    +0.000 OA
ENDROOT
TORSDOF 0
REMARK  Name = ../refined-set-2016/4azc/4azc_pocket.pdb
REMARK  155 active torsions:
REMARK  status: ('A' for Active; 'I' for Inactive)
REMARK    1  A    between atoms: _1  and  _3
REMARK    2  A    between atoms: _3  and  _4
REMARK    3  A    between atoms: _3  and  _6
REMARK    4  A    between atoms: _6  and  _7
REMARK    5  A    between atoms: _10  and  _12
REMARK    6  A    between atoms: _12  and  _13
REMARK    7  A    between atoms: _12  and  _15
REMARK    8  A    between atoms: _15  and  _16
REMARK    9  A    between atoms: _16  and  _17
REMARK   10  A    between atoms: _17  and  _18
REMARK   11  A    between atoms: _27  and  _29
REMARK   12  A    between atoms: _29  and  _30
REMARK   13  A    between atoms: _29  and  _32
REMARK   14  A    between atoms: _32  and  _33
REMARK   15  A    between atoms: _36  and  _38
REMARK   16  A    between atoms: _38  and  _39
REMARK   17  A    between atoms: _38  and  _41
REMARK   18  A    between atoms: _41  and  _42
REMARK   19  A    between atoms: _47  and  _49
REMARK   20  A    between atoms: _49  and  _50
REMARK   21  A    between atoms: _49  and  _52
REMARK   22  A    between atoms: _52  and  _53
REMARK   23  A    between atoms: _56  and  _58
REMARK   24  A    between atoms: _58  and  _59
REMARK   25  A    between atoms: _58  and  _61
REMARK   26  A    between atoms: _61  and  _62
REMARK   27  A    between atoms: _67  and  _69
REMARK   28  A    between atoms: _69  and  _70
REMARK   29  A    between atoms: _69  and  _72
REMARK   30  A    between atoms: _72  and  _73
REMARK   31  A    between atoms: _78  and  _80
REMARK   32  A    between atoms: _80  and  _81
REMARK   33  A    between atoms: _80  and  _83
REMARK   34  A    between atoms: _83  and  _84
REMARK   35  A    between atoms: _89  and  _91
REMARK   36  A    between atoms: _91  and  _92
REMARK   37  A    between atoms: _94  and  _96
REMARK   38  A    between atoms: _96  and  _97
REMARK   39  A    between atoms: _96  and  _99
REMARK   40  A    between atoms: _99  and  _100
REMARK   41  A    between atoms: _103  and  _105
REMARK   42  A    between atoms: _105  and  _106
REMARK   43  A    between atoms: _105  and  _108
REMARK   44  A    between atoms: _108  and  _109
REMARK   45  A    between atoms: _112  and  _114
REMARK   46  A    between atoms: _114  and  _115
REMARK   47  A    between atoms: _114  and  _117
REMARK   48  A    between atoms: _117  and  _118
REMARK   49  A    between atoms: _118  and  _119
REMARK   50  A    between atoms: _122  and  _124
REMARK   51  A    between atoms: _124  and  _125
REMARK   52  A    between atoms: _124  and  _127
REMARK   53  A    between atoms: _127  and  _128
REMARK   54  A    between atoms: _133  and  _135
REMARK   55  A    between atoms: _135  and  _136
REMARK   56  A    between atoms: _139  and  _141
REMARK   57  A    between atoms: _141  and  _142
REMARK   58  A    between atoms: _141  and  _144
REMARK   59  A    between atoms: _144  and  _145
REMARK   60  A    between atoms: _151  and  _153
REMARK   61  A    between atoms: _153  and  _154
REMARK   62  A    between atoms: _153  and  _156
REMARK   63  A    between atoms: _156  and  _157
REMARK   64  A    between atoms: _162  and  _164
REMARK   65  A    between atoms: _164  and  _165
REMARK   66  A    between atoms: _164  and  _167
REMARK   67  A    between atoms: _167  and  _168
REMARK   68  A    between atoms: _171  and  _173
REMARK   69  A    between atoms: _173  and  _174
REMARK   70  A    between atoms: _173  and  _176
REMARK   71  A    between atoms: _176  and  _177
REMARK   72  A    between atoms: _179  and  _181
REMARK   73  A    between atoms: _181  and  _182
REMARK   74  A    between atoms: _181  and  _184
REMARK   75  A    between atoms: _184  and  _185
REMARK   76  A    between atoms: _190  and  _191
REMARK   77  A    between atoms: _193  and  _195
REMARK   78  A    between atoms: _195  and  _196
REMARK   79  A    between atoms: _195  and  _198
REMARK   80  A    between atoms: _198  and  _199
REMARK   81  A    between atoms: _209  and  _211
REMARK   82  A    between atoms: _211  and  _212
REMARK   83  A    between atoms: _211  and  _214
REMARK   84  A    between atoms: _214  and  _215
REMARK   85  A    between atoms: _217  and  _219
REMARK   86  A    between atoms: _219  and  _220
REMARK   87  A    between atoms: _219  and  _222
REMARK   88  A    between atoms: _222  and  _223
REMARK   89  A    between atoms: _233  and  _235
REMARK   90  A    between atoms: _235  and  _236
REMARK   91  A    between atoms: _235  and  _238
REMARK   92  A    between atoms: _238  and  _239
REMARK   93  A    between atoms: _244  and  _245
REMARK   94  A    between atoms: _247  and  _249
REMARK   95  A    between atoms: _249  and  _250
REMARK   96  A    between atoms: _249  and  _252
REMARK   97  A    between atoms: _252  and  _253
REMARK   98  A    between atoms: _256  and  _258
REMARK   99  A    between atoms: _258  and  _259
REMARK  100  A    between atoms: _261  and  _263
REMARK  101  A    between atoms: _263  and  _264
REMARK  102  A    between atoms: _263  and  _266
REMARK  103  A    between atoms: _266  and  _267
REMARK  104  A    between atoms: _272  and  _273
REMARK  105  A    between atoms: _275  and  _277
REMARK  106  A    between atoms: _277  and  _278
REMARK  107  A    between atoms: _277  and  _280
REMARK  108  A    between atoms: _280  and  _281
REMARK  109  A    between atoms: _286  and  _287
REMARK  110  A    between atoms: _289  and  _291
REMARK  111  A    between atoms: _291  and  _292
REMARK  112  A    between atoms: _291  and  _294
REMARK  113  A    between atoms: _294  and  _295
REMARK  114  A    between atoms: _298  and  _300
REMARK  115  A    between atoms: _300  and  _301
REMARK  116  A    between atoms: _300  and  _303
REMARK  117  A    between atoms: _303  and  _304
REMARK  118  A    between atoms: _307  and  _309
REMARK  119  A    between atoms: _309  and  _310
REMARK  120  A    between atoms: _309  and  _312
REMARK  121  A    between atoms: _312  and  _313
REMARK  122  A    between atoms: _313  and  _314
REMARK  123  A    between atoms: _319  and  _321
REMARK  124  A    between atoms: _321  and  _322
REMARK  125  A    between atoms: _324  and  _326
REMARK  126  A    between atoms: _326  and  _327
REMARK  127  A    between atoms: _329  and  _331
REMARK  128  A    between atoms: _331  and  _332
REMARK  129  A    between atoms: _331  and  _334
REMARK  130  A    between atoms: _334  and  _335
REMARK  131  A    between atoms: _335  and  _336
REMARK  132  A    between atoms: _338  and  _340
REMARK  133  A    between atoms: _340  and  _341
REMARK  134  A    between atoms: _340  and  _343
REMARK  135  A    between atoms: _343  and  _344
REMARK  136  A    between atoms: _346  and  _348
REMARK  137  A    between atoms: _348  and  _349
REMARK  138  A    between atoms: _348  and  _351
REMARK  139  A    between atoms: _351  and  _352
REMARK  140  A    between atoms: _355  and  _357
REMARK  141  A    between atoms: _357  and  _358
REMARK  142  A    between atoms: _357  and  _360
REMARK  143  A    between atoms: _360  and  _361
REMARK  144  A    between atoms: _371  and  _373
REMARK  145  A    between atoms: _373  and  _374
REMARK  146  A    between atoms: _377  and  _379
REMARK  147  A    between atoms: _379  and  _380
REMARK  148  A    between atoms: _379  and  _382
REMARK  149  A    between atoms: _382  and  _383
REMARK  150  A    between atoms: _386  and  _388
REMARK  151  A    between atoms: _388  and  _389
REMARK  152  A    between atoms: _388  and  _391
REMARK  153  A    between atoms: _391  and  _392
REMARK  154  A    between atoms: _392  and  _393
REMARK  155  A    between atoms: _393  and  _394
REMARK                            x       y       z     vdW  Elec       q    Type
REMARK                         _______ _______ _______ _____ _____    ______ ____
ROOT
ATOM      1  O   HOH     1     -38.865 -26.709 -50.765  0.00  0.00    +0.000 OA
ENDROOT
TORSDOF 0
REMARK  Name = ../refined-set-2016/4azc/4azc_pocket.pdb
REMARK  155 active torsions:
REMARK  status: ('A' for Active; 'I' for Inactive)
REMARK    1  A    between atoms: _1  and  _3
REMARK    2  A    between atoms: _3  and  _4
REMARK    3  A    between atoms: _3  and  _6
REMARK    4  A    between atoms: _6  and  _7
REMARK    5  A    between atoms: _10  and  _12
REMARK    6  A    between atoms: _12  and  _13
REMARK    7  A    between atoms: _12  and  _15
REMARK    8  A    between atoms: _15  and  _16
REMARK    9  A    between atoms: _16  and  _17
REMARK   10  A    between atoms: _17  and  _18
REMARK   11  A    between atoms: _27  and  _29
REMARK   12  A    between atoms: _29  and  _30
REMARK   13  A    between atoms: _29  and  _32
REMARK   14  A    between atoms: _32  and  _33
REMARK   15  A    between atoms: _36  and  _38
REMARK   16  A    between atoms: _38  and  _39
REMARK   17  A    between atoms: _38  and  _41
REMARK   18  A    between atoms: _41  and  _42
REMARK   19  A    between atoms: _47  and  _49
REMARK   20  A    between atoms: _49  and  _50
REMARK   21  A    between atoms: _49  and  _52
REMARK   22  A    between atoms: _52  and  _53
REMARK   23  A    between atoms: _56  and  _58
REMARK   24  A    between atoms: _58  and  _59
REMARK   25  A    between atoms: _58  and  _61
REMARK   26  A    between atoms: _61  and  _62
REMARK   27  A    between atoms: _67  and  _69
REMARK   28  A    between atoms: _69  and  _70
REMARK   29  A    between atoms: _69  and  _72
REMARK   30  A    between atoms: _72  and  _73
REMARK   31  A    between atoms: _78  and  _80
REMARK   32  A    between atoms: _80  and  _81
REMARK   33  A    between atoms: _80  and  _83
REMARK   34  A    between atoms: _83  and  _84
REMARK   35  A    between atoms: _89  and  _91
REMARK   36  A    between atoms: _91  and  _92
REMARK   37  A    between atoms: _94  and  _96
REMARK   38  A    between atoms: _96  and  _97
REMARK   39  A    between atoms: _96  and  _99
REMARK   40  A    between atoms: _99  and  _100
REMARK   41  A    between atoms: _103  and  _105
REMARK   42  A    between atoms: _105  and  _106
REMARK   43  A    between atoms: _105  and  _108
REMARK   44  A    between atoms: _108  and  _109
REMARK   45  A    between atoms: _112  and  _114
REMARK   46  A    between atoms: _114  and  _115
REMARK   47  A    between atoms: _114  and  _117
REMARK   48  A    between atoms: _117  and  _118
REMARK   49  A    between atoms: _118  and  _119
REMARK   50  A    between atoms: _122  and  _124
REMARK   51  A    between atoms: _124  and  _125
REMARK   52  A    between atoms: _124  and  _127
REMARK   53  A    between atoms: _127  and  _128
REMARK   54  A    between atoms: _133  and  _135
REMARK   55  A    between atoms: _135  and  _136
REMARK   56  A    between atoms: _139  and  _141
REMARK   57  A    between atoms: _141  and  _142
REMARK   58  A    between atoms: _141  and  _144
REMARK   59  A    between atoms: _144  and  _145
REMARK   60  A    between atoms: _151  and  _153
REMARK   61  A    between atoms: _153  and  _154
REMARK   62  A    between atoms: _153  and  _156
REMARK   63  A    between atoms: _156  and  _157
REMARK   64  A    between atoms: _162  and  _164
REMARK   65  A    between atoms: _164  and  _165
REMARK   66  A    between atoms: _164  and  _167
REMARK   67  A    between atoms: _167  and  _168
REMARK   68  A    between atoms: _171  and  _173
REMARK   69  A    between atoms: _173  and  _174
REMARK   70  A    between atoms: _173  and  _176
REMARK   71  A    between atoms: _176  and  _177
REMARK   72  A    between atoms: _179  and  _181
REMARK   73  A    between atoms: _181  and  _182
REMARK   74  A    between atoms: _181  and  _184
REMARK   75  A    between atoms: _184  and  _185
REMARK   76  A    between atoms: _190  and  _191
REMARK   77  A    between atoms: _193  and  _195
REMARK   78  A    between atoms: _195  and  _196
REMARK   79  A    between atoms: _195  and  _198
REMARK   80  A    between atoms: _198  and  _199
REMARK   81  A    between atoms: _209  and  _211
REMARK   82  A    between atoms: _211  and  _212
REMARK   83  A    between atoms: _211  and  _214
REMARK   84  A    between atoms: _214  and  _215
REMARK   85  A    between atoms: _217  and  _219
REMARK   86  A    between atoms: _219  and  _220
REMARK   87  A    between atoms: _219  and  _222
REMARK   88  A    between atoms: _222  and  _223
REMARK   89  A    between atoms: _233  and  _235
REMARK   90  A    between atoms: _235  and  _236
REMARK   91  A    between atoms: _235  and  _238
REMARK   92  A    between atoms: _238  and  _239
REMARK   93  A    between atoms: _244  and  _245
REMARK   94  A    between atoms: _247  and  _249
REMARK   95  A    between atoms: _249  and  _250
REMARK   96  A    between atoms: _249  and  _252
REMARK   97  A    between atoms: _252  and  _253
REMARK   98  A    between atoms: _256  and  _258
REMARK   99  A    between atoms: _258  and  _259
REMARK  100  A    between atoms: _261  and  _263
REMARK  101  A    between atoms: _263  and  _264
REMARK  102  A    between atoms: _263  and  _266
REMARK  103  A    between atoms: _266  and  _267
REMARK  104  A    between atoms: _272  and  _273
REMARK  105  A    between atoms: _275  and  _277
REMARK  106  A    between atoms: _277  and  _278
REMARK  107  A    between atoms: _277  and  _280
REMARK  108  A    between atoms: _280  and  _281
REMARK  109  A    between atoms: _286  and  _287
REMARK  110  A    between atoms: _289  and  _291
REMARK  111  A    between atoms: _291  and  _292
REMARK  112  A    between atoms: _291  and  _294
REMARK  113  A    between atoms: _294  and  _295
REMARK  114  A    between atoms: _298  and  _300
REMARK  115  A    between atoms: _300  and  _301
REMARK  116  A    between atoms: _300  and  _303
REMARK  117  A    between atoms: _303  and  _304
REMARK  118  A    between atoms: _307  and  _309
REMARK  119  A    between atoms: _309  and  _310
REMARK  120  A    between atoms: _309  and  _312
REMARK  121  A    between atoms: _312  and  _313
REMARK  122  A    between atoms: _313  and  _314
REMARK  123  A    between atoms: _319  and  _321
REMARK  124  A    between atoms: _321  and  _322
REMARK  125  A    between atoms: _324  and  _326
REMARK  126  A    between atoms: _326  and  _327
REMARK  127  A    between atoms: _329  and  _331
REMARK  128  A    between atoms: _331  and  _332
REMARK  129  A    between atoms: _331  and  _334
REMARK  130  A    between atoms: _334  and  _335
REMARK  131  A    between atoms: _335  and  _336
REMARK  132  A    between atoms: _338  and  _340
REMARK  133  A    between atoms: _340  and  _341
REMARK  134  A    between atoms: _340  and  _343
REMARK  135  A    between atoms: _343  and  _344
REMARK  136  A    between atoms: _346  and  _348
REMARK  137  A    between atoms: _348  and  _349
REMARK  138  A    between atoms: _348  and  _351
REMARK  139  A    between atoms: _351  and  _352
REMARK  140  A    between atoms: _355  and  _357
REMARK  141  A    between atoms: _357  and  _358
REMARK  142  A    between atoms: _357  and  _360
REMARK  143  A    between atoms: _360  and  _361
REMARK  144  A    between atoms: _371  and  _373
REMARK  145  A    between atoms: _373  and  _374
REMARK  146  A    between atoms: _377  and  _379
REMARK  147  A    between atoms: _379  and  _380
REMARK  148  A    between atoms: _379  and  _382
REMARK  149  A    between atoms: _382  and  _383
REMARK  150  A    between atoms: _386  and  _388
REMARK  151  A    between atoms: _388  and  _389
REMARK  152  A    between atoms: _388  and  _391
REMARK  153  A    between atoms: _391  and  _392
REMARK  154  A    between atoms: _392  and  _393
REMARK  155  A    between atoms: _393  and  _394
REMARK                            x       y       z     vdW  Elec       q    Type
REMARK                         _______ _______ _______ _____ _____    ______ ____
ROOT
ATOM      1  O   HOH     1     -36.428 -28.253 -51.468  0.00  0.00    +0.000 OA
ENDROOT
TORSDOF 0
REMARK  Name = ../refined-set-2016/4azc/4azc_pocket.pdb
REMARK  155 active torsions:
REMARK  status: ('A' for Active; 'I' for Inactive)
REMARK    1  A    between atoms: _1  and  _3
REMARK    2  A    between atoms: _3  and  _4
REMARK    3  A    between atoms: _3  and  _6
REMARK    4  A    between atoms: _6  and  _7
REMARK    5  A    between atoms: _10  and  _12
REMARK    6  A    between atoms: _12  and  _13
REMARK    7  A    between atoms: _12  and  _15
REMARK    8  A    between atoms: _15  and  _16
REMARK    9  A    between atoms: _16  and  _17
REMARK   10  A    between atoms: _17  and  _18
REMARK   11  A    between atoms: _27  and  _29
REMARK   12  A    between atoms: _29  and  _30
REMARK   13  A    between atoms: _29  and  _32
REMARK   14  A    between atoms: _32  and  _33
REMARK   15  A    between atoms: _36  and  _38
REMARK   16  A    between atoms: _38  and  _39
REMARK   17  A    between atoms: _38  and  _41
REMARK   18  A    between atoms: _41  and  _42
REMARK   19  A    between atoms: _47  and  _49
REMARK   20  A    between atoms: _49  and  _50
REMARK   21  A    between atoms: _49  and  _52
REMARK   22  A    between atoms: _52  and  _53
REMARK   23  A    between atoms: _56  and  _58
REMARK   24  A    between atoms: _58  and  _59
REMARK   25  A    between atoms: _58  and  _61
REMARK   26  A    between atoms: _61  and  _62
REMARK   27  A    between atoms: _67  and  _69
REMARK   28  A    between atoms: _69  and  _70
REMARK   29  A    between atoms: _69  and  _72
REMARK   30  A    between atoms: _72  and  _73
REMARK   31  A    between atoms: _78  and  _80
REMARK   32  A    between atoms: _80  and  _81
REMARK   33  A    between atoms: _80  and  _83
REMARK   34  A    between atoms: _83  and  _84
REMARK   35  A    between atoms: _89  and  _91
REMARK   36  A    between atoms: _91  and  _92
REMARK   37  A    between atoms: _94  and  _96
REMARK   38  A    between atoms: _96  and  _97
REMARK   39  A    between atoms: _96  and  _99
REMARK   40  A    between atoms: _99  and  _100
REMARK   41  A    between atoms: _103  and  _105
REMARK   42  A    between atoms: _105  and  _106
REMARK   43  A    between atoms: _105  and  _108
REMARK   44  A    between atoms: _108  and  _109
REMARK   45  A    between atoms: _112  and  _114
REMARK   46  A    between atoms: _114  and  _115
REMARK   47  A    between atoms: _114  and  _117
REMARK   48  A    between atoms: _117  and  _118
REMARK   49  A    between atoms: _118  and  _119
REMARK   50  A    between atoms: _122  and  _124
REMARK   51  A    between atoms: _124  and  _125
REMARK   52  A    between atoms: _124  and  _127
REMARK   53  A    between atoms: _127  and  _128
REMARK   54  A    between atoms: _133  and  _135
REMARK   55  A    between atoms: _135  and  _136
REMARK   56  A    between atoms: _139  and  _141
REMARK   57  A    between atoms: _141  and  _142
REMARK   58  A    between atoms: _141  and  _144
REMARK   59  A    between atoms: _144  and  _145
REMARK   60  A    between atoms: _151  and  _153
REMARK   61  A    between atoms: _153  and  _154
REMARK   62  A    between atoms: _153  and  _156
REMARK   63  A    between atoms: _156  and  _157
REMARK   64  A    between atoms: _162  and  _164
REMARK   65  A    between atoms: _164  and  _165
REMARK   66  A    between atoms: _164  and  _167
REMARK   67  A    between atoms: _167  and  _168
REMARK   68  A    between atoms: _171  and  _173
REMARK   69  A    between atoms: _173  and  _174
REMARK   70  A    between atoms: _173  and  _176
REMARK   71  A    between atoms: _176  and  _177
REMARK   72  A    between atoms: _179  and  _181
REMARK   73  A    between atoms: _181  and  _182
REMARK   74  A    between atoms: _181  and  _184
REMARK   75  A    between atoms: _184  and  _185
REMARK   76  A    between atoms: _190  and  _191
REMARK   77  A    between atoms: _193  and  _195
REMARK   78  A    between atoms: _195  and  _196
REMARK   79  A    between atoms: _195  and  _198
REMARK   80  A    between atoms: _198  and  _199
REMARK   81  A    between atoms: _209  and  _211
REMARK   82  A    between atoms: _211  and  _212
REMARK   83  A    between atoms: _211  and  _214
REMARK   84  A    between atoms: _214  and  _215
REMARK   85  A    between atoms: _217  and  _219
REMARK   86  A    between atoms: _219  and  _220
REMARK   87  A    between atoms: _219  and  _222
REMARK   88  A    between atoms: _222  and  _223
REMARK   89  A    between atoms: _233  and  _235
REMARK   90  A    between atoms: _235  and  _236
REMARK   91  A    between atoms: _235  and  _238
REMARK   92  A    between atoms: _238  and  _239
REMARK   93  A    between atoms: _244  and  _245
REMARK   94  A    between atoms: _247  and  _249
REMARK   95  A    between atoms: _249  and  _250
REMARK   96  A    between atoms: _249  and  _252
REMARK   97  A    between atoms: _252  and  _253
REMARK   98  A    between atoms: _256  and  _258
REMARK   99  A    between atoms: _258  and  _259
REMARK  100  A    between atoms: _261  and  _263
REMARK  101  A    between atoms: _263  and  _264
REMARK  102  A    between atoms: _263  and  _266
REMARK  103  A    between atoms: _266  and  _267
REMARK  104  A    between atoms: _272  and  _273
REMARK  105  A    between atoms: _275  and  _277
REMARK  106  A    between atoms: _277  and  _278
REMARK  107  A    between atoms: _277  and  _280
REMARK  108  A    between atoms: _280  and  _281
REMARK  109  A    between atoms: _286  and  _287
REMARK  110  A    between atoms: _289  and  _291
REMARK  111  A    between atoms: _291  and  _292
REMARK  112  A    between atoms: _291  and  _294
REMARK  113  A    between atoms: _294  and  _295
REMARK  114  A    between atoms: _298  and  _300
REMARK  115  A    between atoms: _300  and  _301
REMARK  116  A    between atoms: _300  and  _303
REMARK  117  A    between atoms: _303  and  _304
REMARK  118  A    between atoms: _307  and  _309
REMARK  119  A    between atoms: _309  and  _310
REMARK  120  A    between atoms: _309  and  _312
REMARK  121  A    between atoms: _312  and  _313
REMARK  122  A    between atoms: _313  and  _314
REMARK  123  A    between atoms: _319  and  _321
REMARK  124  A    between atoms: _321  and  _322
REMARK  125  A    between atoms: _324  and  _326
REMARK  126  A    between atoms: _326  and  _327
REMARK  127  A    between atoms: _329  and  _331
REMARK  128  A    between atoms: _331  and  _332
REMARK  129  A    between atoms: _331  and  _334
REMARK  130  A    between atoms: _334  and  _335
REMARK  131  A    between atoms: _335  and  _336
REMARK  132  A    between atoms: _338  and  _340
REMARK  133  A    between atoms: _340  and  _341
REMARK  134  A    between atoms: _340  and  _343
REMARK  135  A    between atoms: _343  and  _344
REMARK  136  A    between atoms: _346  and  _348
REMARK  137  A    between atoms: _348  and  _349
REMARK  138  A    between atoms: _348  and  _351
REMARK  139  A    between atoms: _351  and  _352
REMARK  140  A    between atoms: _355  and  _357
REMARK  141  A    between atoms: _357  and  _358
REMARK  142  A    between atoms: _357  and  _360
REMARK  143  A    between atoms: _360  and  _361
REMARK  144  A    between atoms: _371  and  _373
REMARK  145  A    between atoms: _373  and  _374
REMARK  146  A    between atoms: _377  and  _379
REMARK  147  A    between atoms: _379  and  _380
REMARK  148  A    between atoms: _379  and  _382
REMARK  149  A    between atoms: _382  and  _383
REMARK  150  A    between atoms: _386  and  _388
REMARK  151  A    between atoms: _388  and  _389
REMARK  152  A    between atoms: _388  and  _391
REMARK  153  A    between atoms: _391  and  _392
REMARK  154  A    between atoms: _392  and  _393
REMARK  155  A    between atoms: _393  and  _394
REMARK                            x       y       z     vdW  Elec       q    Type
REMARK                         _______ _______ _______ _____ _____    ______ ____
ROOT
ATOM      1  O   HOH     1     -36.640 -29.638 -56.214  0.00  0.00    +0.000 OA
ENDROOT
TORSDOF 0
REMARK  Name = ../refined-set-2016/4azc/4azc_pocket.pdb
REMARK  155 active torsions:
REMARK  status: ('A' for Active; 'I' for Inactive)
REMARK    1  A    between atoms: _1  and  _3
REMARK    2  A    between atoms: _3  and  _4
REMARK    3  A    between atoms: _3  and  _6
REMARK    4  A    between atoms: _6  and  _7
REMARK    5  A    between atoms: _10  and  _12
REMARK    6  A    between atoms: _12  and  _13
REMARK    7  A    between atoms: _12  and  _15
REMARK    8  A    between atoms: _15  and  _16
REMARK    9  A    between atoms: _16  and  _17
REMARK   10  A    between atoms: _17  and  _18
REMARK   11  A    between atoms: _27  and  _29
REMARK   12  A    between atoms: _29  and  _30
REMARK   13  A    between atoms: _29  and  _32
REMARK   14  A    between atoms: _32  and  _33
REMARK   15  A    between atoms: _36  and  _38
REMARK   16  A    between atoms: _38  and  _39
REMARK   17  A    between atoms: _38  and  _41
REMARK   18  A    between atoms: _41  and  _42
REMARK   19  A    between atoms: _47  and  _49
REMARK   20  A    between atoms: _49  and  _50
REMARK   21  A    between atoms: _49  and  _52
REMARK   22  A    between atoms: _52  and  _53
REMARK   23  A    between atoms: _56  and  _58
REMARK   24  A    between atoms: _58  and  _59
REMARK   25  A    between atoms: _58  and  _61
REMARK   26  A    between atoms: _61  and  _62
REMARK   27  A    between atoms: _67  and  _69
REMARK   28  A    between atoms: _69  and  _70
REMARK   29  A    between atoms: _69  and  _72
REMARK   30  A    between atoms: _72  and  _73
REMARK   31  A    between atoms: _78  and  _80
REMARK   32  A    between atoms: _80  and  _81
REMARK   33  A    between atoms: _80  and  _83
REMARK   34  A    between atoms: _83  and  _84
REMARK   35  A    between atoms: _89  and  _91
REMARK   36  A    between atoms: _91  and  _92
REMARK   37  A    between atoms: _94  and  _96
REMARK   38  A    between atoms: _96  and  _97
REMARK   39  A    between atoms: _96  and  _99
REMARK   40  A    between atoms: _99  and  _100
REMARK   41  A    between atoms: _103  and  _105
REMARK   42  A    between atoms: _105  and  _106
REMARK   43  A    between atoms: _105  and  _108
REMARK   44  A    between atoms: _108  and  _109
REMARK   45  A    between atoms: _112  and  _114
REMARK   46  A    between atoms: _114  and  _115
REMARK   47  A    between atoms: _114  and  _117
REMARK   48  A    between atoms: _117  and  _118
REMARK   49  A    between atoms: _118  and  _119
REMARK   50  A    between atoms: _122  and  _124
REMARK   51  A    between atoms: _124  and  _125
REMARK   52  A    between atoms: _124  and  _127
REMARK   53  A    between atoms: _127  and  _128
REMARK   54  A    between atoms: _133  and  _135
REMARK   55  A    between atoms: _135  and  _136
REMARK   56  A    between atoms: _139  and  _141
REMARK   57  A    between atoms: _141  and  _142
REMARK   58  A    between atoms: _141  and  _144
REMARK   59  A    between atoms: _144  and  _145
REMARK   60  A    between atoms: _151  and  _153
REMARK   61  A    between atoms: _153  and  _154
REMARK   62  A    between atoms: _153  and  _156
REMARK   63  A    between atoms: _156  and  _157
REMARK   64  A    between atoms: _162  and  _164
REMARK   65  A    between atoms: _164  and  _165
REMARK   66  A    between atoms: _164  and  _167
REMARK   67  A    between atoms: _167  and  _168
REMARK   68  A    between atoms: _171  and  _173
REMARK   69  A    between atoms: _173  and  _174
REMARK   70  A    between atoms: _173  and  _176
REMARK   71  A    between atoms: _176  and  _177
REMARK   72  A    between atoms: _179  and  _181
REMARK   73  A    between atoms: _181  and  _182
REMARK   74  A    between atoms: _181  and  _184
REMARK   75  A    between atoms: _184  and  _185
REMARK   76  A    between atoms: _190  and  _191
REMARK   77  A    between atoms: _193  and  _195
REMARK   78  A    between atoms: _195  and  _196
REMARK   79  A    between atoms: _195  and  _198
REMARK   80  A    between atoms: _198  and  _199
REMARK   81  A    between atoms: _209  and  _211
REMARK   82  A    between atoms: _211  and  _212
REMARK   83  A    between atoms: _211  and  _214
REMARK   84  A    between atoms: _214  and  _215
REMARK   85  A    between atoms: _217  and  _219
REMARK   86  A    between atoms: _219  and  _220
REMARK   87  A    between atoms: _219  and  _222
REMARK   88  A    between atoms: _222  and  _223
REMARK   89  A    between atoms: _233  and  _235
REMARK   90  A    between atoms: _235  and  _236
REMARK   91  A    between atoms: _235  and  _238
REMARK   92  A    between atoms: _238  and  _239
REMARK   93  A    between atoms: _244  and  _245
REMARK   94  A    between atoms: _247  and  _249
REMARK   95  A    between atoms: _249  and  _250
REMARK   96  A    between atoms: _249  and  _252
REMARK   97  A    between atoms: _252  and  _253
REMARK   98  A    between atoms: _256  and  _258
REMARK   99  A    between atoms: _258  and  _259
REMARK  100  A    between atoms: _261  and  _263
REMARK  101  A    between atoms: _263  and  _264
REMARK  102  A    between atoms: _263  and  _266
REMARK  103  A    between atoms: _266  and  _267
REMARK  104  A    between atoms: _272  and  _273
REMARK  105  A    between atoms: _275  and  _277
REMARK  106  A    between atoms: _277  and  _278
REMARK  107  A    between atoms: _277  and  _280
REMARK  108  A    between atoms: _280  and  _281
REMARK  109  A    between atoms: _286  and  _287
REMARK  110  A    between atoms: _289  and  _291
REMARK  111  A    between atoms: _291  and  _292
REMARK  112  A    between atoms: _291  and  _294
REMARK  113  A    between atoms: _294  and  _295
REMARK  114  A    between atoms: _298  and  _300
REMARK  115  A    between atoms: _300  and  _301
REMARK  116  A    between atoms: _300  and  _303
REMARK  117  A    between atoms: _303  and  _304
REMARK  118  A    between atoms: _307  and  _309
REMARK  119  A    between atoms: _309  and  _310
REMARK  120  A    between atoms: _309  and  _312
REMARK  121  A    between atoms: _312  and  _313
REMARK  122  A    between atoms: _313  and  _314
REMARK  123  A    between atoms: _319  and  _321
REMARK  124  A    between atoms: _321  and  _322
REMARK  125  A    between atoms: _324  and  _326
REMARK  126  A    between atoms: _326  and  _327
REMARK  127  A    between atoms: _329  and  _331
REMARK  128  A    between atoms: _331  and  _332
REMARK  129  A    between atoms: _331  and  _334
REMARK  130  A    between atoms: _334  and  _335
REMARK  131  A    between atoms: _335  and  _336
REMARK  132  A    between atoms: _338  and  _340
REMARK  133  A    between atoms: _340  and  _341
REMARK  134  A    between atoms: _340  and  _343
REMARK  135  A    between atoms: _343  and  _344
REMARK  136  A    between atoms: _346  and  _348
REMARK  137  A    between atoms: _348  and  _349
REMARK  138  A    between atoms: _348  and  _351
REMARK  139  A    between atoms: _351  and  _352
REMARK  140  A    between atoms: _355  and  _357
REMARK  141  A    between atoms: _357  and  _358
REMARK  142  A    between atoms: _357  and  _360
REMARK  143  A    between atoms: _360  and  _361
REMARK  144  A    between atoms: _371  and  _373
REMARK  145  A    between atoms: _373  and  _374
REMARK  146  A    between atoms: _377  and  _379
REMARK  147  A    between atoms: _379  and  _380
REMARK  148  A    between atoms: _379  and  _382
REMARK  149  A    between atoms: _382  and  _383
REMARK  150  A    between atoms: _386  and  _388
REMARK  151  A    between atoms: _388  and  _389
REMARK  152  A    between atoms: _388  and  _391
REMARK  153  A    between atoms: _391  and  _392
REMARK  154  A    between atoms: _392  and  _393
REMARK  155  A    between atoms: _393  and  _394
REMARK                            x       y       z     vdW  Elec       q    Type
REMARK                         _______ _______ _______ _____ _____    ______ ____
ROOT
ATOM      1  O   HOH     1     -37.411 -25.163 -55.193  0.00  0.00    +0.000 OA
ENDROOT
TORSDOF 0
REMARK  Name = ../refined-set-2016/4azc/4azc_pocket.pdb
REMARK  155 active torsions:
REMARK  status: ('A' for Active; 'I' for Inactive)
REMARK    1  A    between atoms: _1  and  _3
REMARK    2  A    between atoms: _3  and  _4
REMARK    3  A    between atoms: _3  and  _6
REMARK    4  A    between atoms: _6  and  _7
REMARK    5  A    between atoms: _10  and  _12
REMARK    6  A    between atoms: _12  and  _13
REMARK    7  A    between atoms: _12  and  _15
REMARK    8  A    between atoms: _15  and  _16
REMARK    9  A    between atoms: _16  and  _17
REMARK   10  A    between atoms: _17  and  _18
REMARK   11  A    between atoms: _27  and  _29
REMARK   12  A    between atoms: _29  and  _30
REMARK   13  A    between atoms: _29  and  _32
REMARK   14  A    between atoms: _32  and  _33
REMARK   15  A    between atoms: _36  and  _38
REMARK   16  A    between atoms: _38  and  _39
REMARK   17  A    between atoms: _38  and  _41
REMARK   18  A    between atoms: _41  and  _42
REMARK   19  A    between atoms: _47  and  _49
REMARK   20  A    between atoms: _49  and  _50
REMARK   21  A    between atoms: _49  and  _52
REMARK   22  A    between atoms: _52  and  _53
REMARK   23  A    between atoms: _56  and  _58
REMARK   24  A    between atoms: _58  and  _59
REMARK   25  A    between atoms: _58  and  _61
REMARK   26  A    between atoms: _61  and  _62
REMARK   27  A    between atoms: _67  and  _69
REMARK   28  A    between atoms: _69  and  _70
REMARK   29  A    between atoms: _69  and  _72
REMARK   30  A    between atoms: _72  and  _73
REMARK   31  A    between atoms: _78  and  _80
REMARK   32  A    between atoms: _80  and  _81
REMARK   33  A    between atoms: _80  and  _83
REMARK   34  A    between atoms: _83  and  _84
REMARK   35  A    between atoms: _89  and  _91
REMARK   36  A    between atoms: _91  and  _92
REMARK   37  A    between atoms: _94  and  _96
REMARK   38  A    between atoms: _96  and  _97
REMARK   39  A    between atoms: _96  and  _99
REMARK   40  A    between atoms: _99  and  _100
REMARK   41  A    between atoms: _103  and  _105
REMARK   42  A    between atoms: _105  and  _106
REMARK   43  A    between atoms: _105  and  _108
REMARK   44  A    between atoms: _108  and  _109
REMARK   45  A    between atoms: _112  and  _114
REMARK   46  A    between atoms: _114  and  _115
REMARK   47  A    between atoms: _114  and  _117
REMARK   48  A    between atoms: _117  and  _118
REMARK   49  A    between atoms: _118  and  _119
REMARK   50  A    between atoms: _122  and  _124
REMARK   51  A    between atoms: _124  and  _125
REMARK   52  A    between atoms: _124  and  _127
REMARK   53  A    between atoms: _127  and  _128
REMARK   54  A    between atoms: _133  and  _135
REMARK   55  A    between atoms: _135  and  _136
REMARK   56  A    between atoms: _139  and  _141
REMARK   57  A    between atoms: _141  and  _142
REMARK   58  A    between atoms: _141  and  _144
REMARK   59  A    between atoms: _144  and  _145
REMARK   60  A    between atoms: _151  and  _153
REMARK   61  A    between atoms: _153  and  _154
REMARK   62  A    between atoms: _153  and  _156
REMARK   63  A    between atoms: _156  and  _157
REMARK   64  A    between atoms: _162  and  _164
REMARK   65  A    between atoms: _164  and  _165
REMARK   66  A    between atoms: _164  and  _167
REMARK   67  A    between atoms: _167  and  _168
REMARK   68  A    between atoms: _171  and  _173
REMARK   69  A    between atoms: _173  and  _174
REMARK   70  A    between atoms: _173  and  _176
REMARK   71  A    between atoms: _176  and  _177
REMARK   72  A    between atoms: _179  and  _181
REMARK   73  A    between atoms: _181  and  _182
REMARK   74  A    between atoms: _181  and  _184
REMARK   75  A    between atoms: _184  and  _185
REMARK   76  A    between atoms: _190  and  _191
REMARK   77  A    between atoms: _193  and  _195
REMARK   78  A    between atoms: _195  and  _196
REMARK   79  A    between atoms: _195  and  _198
REMARK   80  A    between atoms: _198  and  _199
REMARK   81  A    between atoms: _209  and  _211
REMARK   82  A    between atoms: _211  and  _212
REMARK   83  A    between atoms: _211  and  _214
REMARK   84  A    between atoms: _214  and  _215
REMARK   85  A    between atoms: _217  and  _219
REMARK   86  A    between atoms: _219  and  _220
REMARK   87  A    between atoms: _219  and  _222
REMARK   88  A    between atoms: _222  and  _223
REMARK   89  A    between atoms: _233  and  _235
REMARK   90  A    between atoms: _235  and  _236
REMARK   91  A    between atoms: _235  and  _238
REMARK   92  A    between atoms: _238  and  _239
REMARK   93  A    between atoms: _244  and  _245
REMARK   94  A    between atoms: _247  and  _249
REMARK   95  A    between atoms: _249  and  _250
REMARK   96  A    between atoms: _249  and  _252
REMARK   97  A    between atoms: _252  and  _253
REMARK   98  A    between atoms: _256  and  _258
REMARK   99  A    between atoms: _258  and  _259
REMARK  100  A    between atoms: _261  and  _263
REMARK  101  A    between atoms: _263  and  _264
REMARK  102  A    between atoms: _263  and  _266
REMARK  103  A    between atoms: _266  and  _267
REMARK  104  A    between atoms: _272  and  _273
REMARK  105  A    between atoms: _275  and  _277
REMARK  106  A    between atoms: _277  and  _278
REMARK  107  A    between atoms: _277  and  _280
REMARK  108  A    between atoms: _280  and  _281
REMARK  109  A    between atoms: _286  and  _287
REMARK  110  A    between atoms: _289  and  _291
REMARK  111  A    between atoms: _291  and  _292
REMARK  112  A    between atoms: _291  and  _294
REMARK  113  A    between atoms: _294  and  _295
REMARK  114  A    between atoms: _298  and  _300
REMARK  115  A    between atoms: _300  and  _301
REMARK  116  A    between atoms: _300  and  _303
REMARK  117  A    between atoms: _303  and  _304
REMARK  118  A    between atoms: _307  and  _309
REMARK  119  A    between atoms: _309  and  _310
REMARK  120  A    between atoms: _309  and  _312
REMARK  121  A    between atoms: _312  and  _313
REMARK  122  A    between atoms: _313  and  _314
REMARK  123  A    between atoms: _319  and  _321
REMARK  124  A    between atoms: _321  and  _322
REMARK  125  A    between atoms: _324  and  _326
REMARK  126  A    between atoms: _326  and  _327
REMARK  127  A    between atoms: _329  and  _331
REMARK  128  A    between atoms: _331  and  _332
REMARK  129  A    between atoms: _331  and  _334
REMARK  130  A    between atoms: _334  and  _335
REMARK  131  A    between atoms: _335  and  _336
REMARK  132  A    between atoms: _338  and  _340
REMARK  133  A    between atoms: _340  and  _341
REMARK  134  A    between atoms: _340  and  _343
REMARK  135  A    between atoms: _343  and  _344
REMARK  136  A    between atoms: _346  and  _348
REMARK  137  A    between atoms: _348  and  _349
REMARK  138  A    between atoms: _348  and  _351
REMARK  139  A    between atoms: _351  and  _352
REMARK  140  A    between atoms: _355  and  _357
REMARK  141  A    between atoms: _357  and  _358
REMARK  142  A    between atoms: _357  and  _360
REMARK  143  A    between atoms: _360  and  _361
REMARK  144  A    between atoms: _371  and  _373
REMARK  145  A    between atoms: _373  and  _374
REMARK  146  A    between atoms: _377  and  _379
REMARK  147  A    between atoms: _379  and  _380
REMARK  148  A    between atoms: _379  and  _382
REMARK  149  A    between atoms: _382  and  _383
REMARK  150  A    between atoms: _386  and  _388
REMARK  151  A    between atoms: _388  and  _389
REMARK  152  A    between atoms: _388  and  _391
REMARK  153  A    between atoms: _391  and  _392
REMARK  154  A    between atoms: _392  and  _393
REMARK  155  A    between atoms: _393  and  _394
REMARK                            x       y       z     vdW  Elec       q    Type
REMARK                         _______ _______ _______ _____ _____    ______ ____
ROOT
ATOM      1  O   HOH     1     -42.705 -21.544 -53.932  0.00  0.00    +0.000 OA
ENDROOT
TORSDOF 0
