REMARK  Name = ../refined-set-2016/4b5t/4b5t_pocket.pdb
REMARK  127 active torsions:
REMARK  status: ('A' for Active; 'I' for Inactive)
REMARK    1  A    between atoms: _1  and  _3
REMARK    2  A    between atoms: _3  and  _4
REMARK    3  A    between atoms: _3  and  _6
REMARK    4  A    between atoms: _6  and  _7
REMARK    5  A    between atoms: _17  and  _19
REMARK    6  A    between atoms: _19  and  _20
REMARK    7  A    between atoms: _19  and  _22
REMARK    8  A    between atoms: _22  and  _23
REMARK    9  A    between atoms: _33  and  _35
REMARK   10  A    between atoms: _35  and  _36
REMARK   11  A    between atoms: _35  and  _38
REMARK   12  A    between atoms: _38  and  _39
REMARK   13  A    between atoms: _42  and  _44
REMARK   14  A    between atoms: _44  and  _45
REMARK   15  A    between atoms: _44  and  _47
REMARK   16  A    between atoms: _47  and  _48
REMARK   17  A    between atoms: _51  and  _53
REMARK   18  A    between atoms: _53  and  _54
REMARK   19  A    between atoms: _53  and  _56
REMARK   20  A    between atoms: _56  and  _57
REMARK   21  A    between atoms: _57  and  _58
REMARK   22  A    between atoms: _61  and  _63
REMARK   23  A    between atoms: _63  and  _64
REMARK   24  A    between atoms: _63  and  _66
REMARK   25  A    between atoms: _66  and  _67
REMARK   26  A    between atoms: _72  and  _74
REMARK   27  A    between atoms: _74  and  _75
REMARK   28  A    between atoms: _74  and  _77
REMARK   29  A    between atoms: _77  and  _78
REMARK   30  A    between atoms: _78  and  _79
REMARK   31  A    between atoms: _79  and  _80
REMARK   32  A    between atoms: _89  and  _91
REMARK   33  A    between atoms: _91  and  _92
REMARK   34  A    between atoms: _91  and  _94
REMARK   35  A    between atoms: _94  and  _95
REMARK   36  A    between atoms: _99  and  _100
REMARK   37  A    between atoms: _105  and  _107
REMARK   38  A    between atoms: _107  and  _108
REMARK   39  A    between atoms: _107  and  _110
REMARK   40  A    between atoms: _110  and  _111
REMARK   41  A    between atoms: _111  and  _112
REMARK   42  A    between atoms: _114  and  _116
REMARK   43  A    between atoms: _116  and  _117
REMARK   44  A    between atoms: _116  and  _119
REMARK   45  A    between atoms: _119  and  _120
REMARK   46  A    between atoms: _120  and  _121
REMARK   47  A    between atoms: _126  and  _128
REMARK   48  A    between atoms: _128  and  _129
REMARK   49  A    between atoms: _128  and  _131
REMARK   50  A    between atoms: _131  and  _132
REMARK   51  A    between atoms: _135  and  _137
REMARK   52  A    between atoms: _137  and  _138
REMARK   53  A    between atoms: _137  and  _140
REMARK   54  A    between atoms: _140  and  _141
REMARK   55  A    between atoms: _141  and  _142
REMARK   56  A    between atoms: _142  and  _143
REMARK   57  A    between atoms: _143  and  CO_319
REMARK   58  A    between atoms: _145  and  _147
REMARK   59  A    between atoms: _147  and  _148
REMARK   60  A    between atoms: _147  and  _150
REMARK   61  A    between atoms: _150  and  _151
REMARK   62  A    between atoms: _157  and  _159
REMARK   63  A    between atoms: _159  and  _160
REMARK   64  A    between atoms: _159  and  _162
REMARK   65  A    between atoms: _162  and  _163
REMARK   66  A    between atoms: _166  and  _168
REMARK   67  A    between atoms: _168  and  _169
REMARK   68  A    between atoms: _172  and  _173
REMARK   69  A    between atoms: _178  and  _180
REMARK   70  A    between atoms: _180  and  _181
REMARK   71  A    between atoms: _184  and  _186
REMARK   72  A    between atoms: _186  and  _187
REMARK   73  A    between atoms: _186  and  _189
REMARK   74  A    between atoms: _189  and  _190
REMARK   75  A    between atoms: _190  and  _192
REMARK   76  A    between atoms: _192  and  CO_319
REMARK   77  A    between atoms: _193  and  _195
REMARK   78  A    between atoms: _195  and  _196
REMARK   79  A    between atoms: _195  and  _198
REMARK   80  A    between atoms: _198  and  _199
REMARK   81  A    between atoms: _202  and  _204
REMARK   82  A    between atoms: _204  and  _205
REMARK   83  A    between atoms: _204  and  _207
REMARK   84  A    between atoms: _207  and  _208
REMARK   85  A    between atoms: _210  and  _212
REMARK   86  A    between atoms: _212  and  _213
REMARK   87  A    between atoms: _216  and  _218
REMARK   88  A    between atoms: _218  and  _219
REMARK   89  A    between atoms: _218  and  _221
REMARK   90  A    between atoms: _221  and  _222
REMARK   91  A    between atoms: _225  and  _227
REMARK   92  A    between atoms: _227  and  _228
REMARK   93  A    between atoms: _231  and  _232
REMARK   94  A    between atoms: _237  and  _239
REMARK   95  A    between atoms: _239  and  _240
REMARK   96  A    between atoms: _239  and  _242
REMARK   97  A    between atoms: _242  and  _243
REMARK   98  A    between atoms: _246  and  _248
REMARK   99  A    between atoms: _248  and  _249
REMARK  100  A    between atoms: _248  and  _251
REMARK  101  A    between atoms: _251  and  _252
REMARK  102  A    between atoms: _255  and  _257
REMARK  103  A    between atoms: _257  and  _258
REMARK  104  A    between atoms: _257  and  _260
REMARK  105  A    between atoms: _260  and  _261
REMARK  106  A    between atoms: _264  and  _266
REMARK  107  A    between atoms: _266  and  _267
REMARK  108  A    between atoms: _270  and  _272
REMARK  109  A    between atoms: _272  and  _273
REMARK  110  A    between atoms: _276  and  _278
REMARK  111  A    between atoms: _278  and  _279
REMARK  112  A    between atoms: _278  and  _281
REMARK  113  A    between atoms: _284  and  _286
REMARK  114  A    between atoms: _286  and  _287
REMARK  115  A    between atoms: _289  and  _291
REMARK  116  A    between atoms: _291  and  _292
REMARK  117  A    between atoms: _291  and  _294
REMARK  118  A    between atoms: _297  and  _299
REMARK  119  A    between atoms: _299  and  _300
REMARK  120  A    between atoms: _302  and  _304
REMARK  121  A    between atoms: _304  and  _305
REMARK  122  A    between atoms: _304  and  _307
REMARK  123  A    between atoms: _307  and  _308
REMARK  124  A    between atoms: _310  and  _312
REMARK  125  A    between atoms: _312  and  _313
REMARK  126  A    between atoms: _312  and  _315
REMARK  127  A    between atoms: _315  and  _316
REMARK                            x       y       z     vdW  Elec       q    Type
REMARK                         _______ _______ _______ _____ _____    ______ ____
ROOT
ATOM      1  CG  TRP A   1     -24.367  -8.513   4.179  0.00  0.00    -0.002 A 
ATOM      2  CD2 TRP A   1     -23.992  -7.271   4.771  0.00  0.00    +0.013 A 
ATOM      3  CE3 TRP A   1     -24.712  -6.195   5.300  0.00  0.00    +0.001 A 
ATOM      4  CZ3 TRP A   1     -24.014  -5.130   5.805  0.00  0.00    +0.000 A 
ATOM      5  CH2 TRP A   1     -22.628  -5.110   5.805  0.00  0.00    +0.001 A 
ATOM      6  CZ2 TRP A   1     -21.888  -6.139   5.293  0.00  0.00    +0.017 A 
ATOM      7  CE2 TRP A   1     -22.581  -7.216   4.785  0.00  0.00    +0.056 A 
ATOM      8  NE1 TRP A   1     -22.118  -8.375   4.221  0.00  0.00    -0.352 N 
ATOM      9  HE1 TRP A   1     -21.117  -8.625   4.092  0.00  0.00    +0.166 HD
ATOM     10  CD1 TRP A   1     -23.183  -9.150   3.854  0.00  0.00    +0.068 A 
ENDROOT
BRANCH   1  11
ATOM     11  CB  TRP A   1     -25.743  -9.045   4.007  0.00  0.00    +0.053 C 
BRANCH  11  12
ATOM     12  CA  TRP A   1     -26.518  -8.575   2.790  0.00  0.00    +0.137 C 
BRANCH  12  13
ATOM     13  N   TRP A   1     -27.915  -8.382   3.183  0.00  0.00    -0.239 NA
ATOM     14  H   TRP A   1     -28.281  -8.909   4.002  0.00  0.00    +0.142 HD
ENDBRANCH  12  13
BRANCH  12  15
ATOM     15  C   TRP A   1     -26.412  -9.628   1.685  0.00  0.00    +0.224 C 
ATOM     16  O   TRP A   1     -27.028 -10.708   1.778  0.00  0.00    -0.287 OA
ENDBRANCH  12  15
ENDBRANCH  11  12
ENDBRANCH   1  11
TORSDOF 4
REMARK  Name = ../refined-set-2016/4b5t/4b5t_pocket.pdb
REMARK  127 active torsions:
REMARK  status: ('A' for Active; 'I' for Inactive)
REMARK    1  A    between atoms: _1  and  _3
REMARK    2  A    between atoms: _3  and  _4
REMARK    3  A    between atoms: _3  and  _6
REMARK    4  A    between atoms: _6  and  _7
REMARK    5  A    between atoms: _17  and  _19
REMARK    6  A    between atoms: _19  and  _20
REMARK    7  A    between atoms: _19  and  _22
REMARK    8  A    between atoms: _22  and  _23
REMARK    9  A    between atoms: _33  and  _35
REMARK   10  A    between atoms: _35  and  _36
REMARK   11  A    between atoms: _35  and  _38
REMARK   12  A    between atoms: _38  and  _39
REMARK   13  A    between atoms: _42  and  _44
REMARK   14  A    between atoms: _44  and  _45
REMARK   15  A    between atoms: _44  and  _47
REMARK   16  A    between atoms: _47  and  _48
REMARK   17  A    between atoms: _51  and  _53
REMARK   18  A    between atoms: _53  and  _54
REMARK   19  A    between atoms: _53  and  _56
REMARK   20  A    between atoms: _56  and  _57
REMARK   21  A    between atoms: _57  and  _58
REMARK   22  A    between atoms: _61  and  _63
REMARK   23  A    between atoms: _63  and  _64
REMARK   24  A    between atoms: _63  and  _66
REMARK   25  A    between atoms: _66  and  _67
REMARK   26  A    between atoms: _72  and  _74
REMARK   27  A    between atoms: _74  and  _75
REMARK   28  A    between atoms: _74  and  _77
REMARK   29  A    between atoms: _77  and  _78
REMARK   30  A    between atoms: _78  and  _79
REMARK   31  A    between atoms: _79  and  _80
REMARK   32  A    between atoms: _89  and  _91
REMARK   33  A    between atoms: _91  and  _92
REMARK   34  A    between atoms: _91  and  _94
REMARK   35  A    between atoms: _94  and  _95
REMARK   36  A    between atoms: _99  and  _100
REMARK   37  A    between atoms: _105  and  _107
REMARK   38  A    between atoms: _107  and  _108
REMARK   39  A    between atoms: _107  and  _110
REMARK   40  A    between atoms: _110  and  _111
REMARK   41  A    between atoms: _111  and  _112
REMARK   42  A    between atoms: _114  and  _116
REMARK   43  A    between atoms: _116  and  _117
REMARK   44  A    between atoms: _116  and  _119
REMARK   45  A    between atoms: _119  and  _120
REMARK   46  A    between atoms: _120  and  _121
REMARK   47  A    between atoms: _126  and  _128
REMARK   48  A    between atoms: _128  and  _129
REMARK   49  A    between atoms: _128  and  _131
REMARK   50  A    between atoms: _131  and  _132
REMARK   51  A    between atoms: _135  and  _137
REMARK   52  A    between atoms: _137  and  _138
REMARK   53  A    between atoms: _137  and  _140
REMARK   54  A    between atoms: _140  and  _141
REMARK   55  A    between atoms: _141  and  _142
REMARK   56  A    between atoms: _142  and  _143
REMARK   57  A    between atoms: _143  and  CO_319
REMARK   58  A    between atoms: _145  and  _147
REMARK   59  A    between atoms: _147  and  _148
REMARK   60  A    between atoms: _147  and  _150
REMARK   61  A    between atoms: _150  and  _151
REMARK   62  A    between atoms: _157  and  _159
REMARK   63  A    between atoms: _159  and  _160
REMARK   64  A    between atoms: _159  and  _162
REMARK   65  A    between atoms: _162  and  _163
REMARK   66  A    between atoms: _166  and  _168
REMARK   67  A    between atoms: _168  and  _169
REMARK   68  A    between atoms: _172  and  _173
REMARK   69  A    between atoms: _178  and  _180
REMARK   70  A    between atoms: _180  and  _181
REMARK   71  A    between atoms: _184  and  _186
REMARK   72  A    between atoms: _186  and  _187
REMARK   73  A    between atoms: _186  and  _189
REMARK   74  A    between atoms: _189  and  _190
REMARK   75  A    between atoms: _190  and  _192
REMARK   76  A    between atoms: _192  and  CO_319
REMARK   77  A    between atoms: _193  and  _195
REMARK   78  A    between atoms: _195  and  _196
REMARK   79  A    between atoms: _195  and  _198
REMARK   80  A    between atoms: _198  and  _199
REMARK   81  A    between atoms: _202  and  _204
REMARK   82  A    between atoms: _204  and  _205
REMARK   83  A    between atoms: _204  and  _207
REMARK   84  A    between atoms: _207  and  _208
REMARK   85  A    between atoms: _210  and  _212
REMARK   86  A    between atoms: _212  and  _213
REMARK   87  A    between atoms: _216  and  _218
REMARK   88  A    between atoms: _218  and  _219
REMARK   89  A    between atoms: _218  and  _221
REMARK   90  A    between atoms: _221  and  _222
REMARK   91  A    between atoms: _225  and  _227
REMARK   92  A    between atoms: _227  and  _228
REMARK   93  A    between atoms: _231  and  _232
REMARK   94  A    between atoms: _237  and  _239
REMARK   95  A    between atoms: _239  and  _240
REMARK   96  A    between atoms: _239  and  _242
REMARK   97  A    between atoms: _242  and  _243
REMARK   98  A    between atoms: _246  and  _248
REMARK   99  A    between atoms: _248  and  _249
REMARK  100  A    between atoms: _248  and  _251
REMARK  101  A    between atoms: _251  and  _252
REMARK  102  A    between atoms: _255  and  _257
REMARK  103  A    between atoms: _257  and  _258
REMARK  104  A    between atoms: _257  and  _260
REMARK  105  A    between atoms: _260  and  _261
REMARK  106  A    between atoms: _264  and  _266
REMARK  107  A    between atoms: _266  and  _267
REMARK  108  A    between atoms: _270  and  _272
REMARK  109  A    between atoms: _272  and  _273
REMARK  110  A    between atoms: _276  and  _278
REMARK  111  A    between atoms: _278  and  _279
REMARK  112  A    between atoms: _278  and  _281
REMARK  113  A    between atoms: _284  and  _286
REMARK  114  A    between atoms: _286  and  _287
REMARK  115  A    between atoms: _289  and  _291
REMARK  116  A    between atoms: _291  and  _292
REMARK  117  A    between atoms: _291  and  _294
REMARK  118  A    between atoms: _297  and  _299
REMARK  119  A    between atoms: _299  and  _300
REMARK  120  A    between atoms: _302  and  _304
REMARK  121  A    between atoms: _304  and  _305
REMARK  122  A    between atoms: _304  and  _307
REMARK  123  A    between atoms: _307  and  _308
REMARK  124  A    between atoms: _310  and  _312
REMARK  125  A    between atoms: _312  and  _313
REMARK  126  A    between atoms: _312  and  _315
REMARK  127  A    between atoms: _315  and  _316
REMARK                            x       y       z     vdW  Elec       q    Type
REMARK                         _______ _______ _______ _____ _____    ______ ____
ROOT
ATOM      1  CG  TRP A   1     -30.048  -0.862   2.341  0.00  0.00    -0.002 A 
ATOM      2  CD1 TRP A   1     -30.981  -0.663   3.346  0.00  0.00    +0.068 A 
ATOM      3  NE1 TRP A   1     -30.429  -0.927   4.569  0.00  0.00    -0.352 N 
ATOM      4  HE1 TRP A   1     -30.924  -0.874   5.482  0.00  0.00    +0.166 HD
ATOM      5  CE2 TRP A   1     -29.103  -1.276   4.389  0.00  0.00    +0.056 A 
ATOM      6  CZ2 TRP A   1     -28.128  -1.619   5.329  0.00  0.00    +0.017 A 
ATOM      7  CH2 TRP A   1     -26.864  -1.931   4.858  0.00  0.00    +0.001 A 
ATOM      8  CZ3 TRP A   1     -26.571  -1.904   3.485  0.00  0.00    +0.000 A 
ATOM      9  CE3 TRP A   1     -27.542  -1.582   2.554  0.00  0.00    +0.001 A 
ATOM     10  CD2 TRP A   1     -28.838  -1.253   3.002  0.00  0.00    +0.013 A 
ENDROOT
BRANCH   1  11
ATOM     11  CB  TRP A   1     -30.263  -0.674   0.852  0.00  0.00    +0.053 C 
BRANCH  11  12
ATOM     12  CA  TRP A   1     -31.176  -1.687   0.144  0.00  0.00    +0.137 C 
BRANCH  12  13
ATOM     13  N   TRP A   1     -32.556  -1.653   0.637  0.00  0.00    -0.239 NA
ATOM     14  H   TRP A   1     -32.844  -2.294   1.404  0.00  0.00    +0.142 HD
ENDBRANCH  12  13
BRANCH  12  15
ATOM     15  C   TRP A   1     -30.584  -3.084   0.201  0.00  0.00    +0.224 C 
ATOM     16  O   TRP A   1     -31.046  -3.970   0.944  0.00  0.00    -0.287 OA
ENDBRANCH  12  15
ENDBRANCH  11  12
ENDBRANCH   1  11
TORSDOF 4
REMARK  Name = ../refined-set-2016/4b5t/4b5t_pocket.pdb
REMARK  127 active torsions:
REMARK  status: ('A' for Active; 'I' for Inactive)
REMARK    1  A    between atoms: _1  and  _3
REMARK    2  A    between atoms: _3  and  _4
REMARK    3  A    between atoms: _3  and  _6
REMARK    4  A    between atoms: _6  and  _7
REMARK    5  A    between atoms: _17  and  _19
REMARK    6  A    between atoms: _19  and  _20
REMARK    7  A    between atoms: _19  and  _22
REMARK    8  A    between atoms: _22  and  _23
REMARK    9  A    between atoms: _33  and  _35
REMARK   10  A    between atoms: _35  and  _36
REMARK   11  A    between atoms: _35  and  _38
REMARK   12  A    between atoms: _38  and  _39
REMARK   13  A    between atoms: _42  and  _44
REMARK   14  A    between atoms: _44  and  _45
REMARK   15  A    between atoms: _44  and  _47
REMARK   16  A    between atoms: _47  and  _48
REMARK   17  A    between atoms: _51  and  _53
REMARK   18  A    between atoms: _53  and  _54
REMARK   19  A    between atoms: _53  and  _56
REMARK   20  A    between atoms: _56  and  _57
REMARK   21  A    between atoms: _57  and  _58
REMARK   22  A    between atoms: _61  and  _63
REMARK   23  A    between atoms: _63  and  _64
REMARK   24  A    between atoms: _63  and  _66
REMARK   25  A    between atoms: _66  and  _67
REMARK   26  A    between atoms: _72  and  _74
REMARK   27  A    between atoms: _74  and  _75
REMARK   28  A    between atoms: _74  and  _77
REMARK   29  A    between atoms: _77  and  _78
REMARK   30  A    between atoms: _78  and  _79
REMARK   31  A    between atoms: _79  and  _80
REMARK   32  A    between atoms: _89  and  _91
REMARK   33  A    between atoms: _91  and  _92
REMARK   34  A    between atoms: _91  and  _94
REMARK   35  A    between atoms: _94  and  _95
REMARK   36  A    between atoms: _99  and  _100
REMARK   37  A    between atoms: _105  and  _107
REMARK   38  A    between atoms: _107  and  _108
REMARK   39  A    between atoms: _107  and  _110
REMARK   40  A    between atoms: _110  and  _111
REMARK   41  A    between atoms: _111  and  _112
REMARK   42  A    between atoms: _114  and  _116
REMARK   43  A    between atoms: _116  and  _117
REMARK   44  A    between atoms: _116  and  _119
REMARK   45  A    between atoms: _119  and  _120
REMARK   46  A    between atoms: _120  and  _121
REMARK   47  A    between atoms: _126  and  _128
REMARK   48  A    between atoms: _128  and  _129
REMARK   49  A    between atoms: _128  and  _131
REMARK   50  A    between atoms: _131  and  _132
REMARK   51  A    between atoms: _135  and  _137
REMARK   52  A    between atoms: _137  and  _138
REMARK   53  A    between atoms: _137  and  _140
REMARK   54  A    between atoms: _140  and  _141
REMARK   55  A    between atoms: _141  and  _142
REMARK   56  A    between atoms: _142  and  _143
REMARK   57  A    between atoms: _143  and  CO_319
REMARK   58  A    between atoms: _145  and  _147
REMARK   59  A    between atoms: _147  and  _148
REMARK   60  A    between atoms: _147  and  _150
REMARK   61  A    between atoms: _150  and  _151
REMARK   62  A    between atoms: _157  and  _159
REMARK   63  A    between atoms: _159  and  _160
REMARK   64  A    between atoms: _159  and  _162
REMARK   65  A    between atoms: _162  and  _163
REMARK   66  A    between atoms: _166  and  _168
REMARK   67  A    between atoms: _168  and  _169
REMARK   68  A    between atoms: _172  and  _173
REMARK   69  A    between atoms: _178  and  _180
REMARK   70  A    between atoms: _180  and  _181
REMARK   71  A    between atoms: _184  and  _186
REMARK   72  A    between atoms: _186  and  _187
REMARK   73  A    between atoms: _186  and  _189
REMARK   74  A    between atoms: _189  and  _190
REMARK   75  A    between atoms: _190  and  _192
REMARK   76  A    between atoms: _192  and  CO_319
REMARK   77  A    between atoms: _193  and  _195
REMARK   78  A    between atoms: _195  and  _196
REMARK   79  A    between atoms: _195  and  _198
REMARK   80  A    between atoms: _198  and  _199
REMARK   81  A    between atoms: _202  and  _204
REMARK   82  A    between atoms: _204  and  _205
REMARK   83  A    between atoms: _204  and  _207
REMARK   84  A    between atoms: _207  and  _208
REMARK   85  A    between atoms: _210  and  _212
REMARK   86  A    between atoms: _212  and  _213
REMARK   87  A    between atoms: _216  and  _218
REMARK   88  A    between atoms: _218  and  _219
REMARK   89  A    between atoms: _218  and  _221
REMARK   90  A    between atoms: _221  and  _222
REMARK   91  A    between atoms: _225  and  _227
REMARK   92  A    between atoms: _227  and  _228
REMARK   93  A    between atoms: _231  and  _232
REMARK   94  A    between atoms: _237  and  _239
REMARK   95  A    between atoms: _239  and  _240
REMARK   96  A    between atoms: _239  and  _242
REMARK   97  A    between atoms: _242  and  _243
REMARK   98  A    between atoms: _246  and  _248
REMARK   99  A    between atoms: _248  and  _249
REMARK  100  A    between atoms: _248  and  _251
REMARK  101  A    between atoms: _251  and  _252
REMARK  102  A    between atoms: _255  and  _257
REMARK  103  A    between atoms: _257  and  _258
REMARK  104  A    between atoms: _257  and  _260
REMARK  105  A    between atoms: _260  and  _261
REMARK  106  A    between atoms: _264  and  _266
REMARK  107  A    between atoms: _266  and  _267
REMARK  108  A    between atoms: _270  and  _272
REMARK  109  A    between atoms: _272  and  _273
REMARK  110  A    between atoms: _276  and  _278
REMARK  111  A    between atoms: _278  and  _279
REMARK  112  A    between atoms: _278  and  _281
REMARK  113  A    between atoms: _284  and  _286
REMARK  114  A    between atoms: _286  and  _287
REMARK  115  A    between atoms: _289  and  _291
REMARK  116  A    between atoms: _291  and  _292
REMARK  117  A    between atoms: _291  and  _294
REMARK  118  A    between atoms: _297  and  _299
REMARK  119  A    between atoms: _299  and  _300
REMARK  120  A    between atoms: _302  and  _304
REMARK  121  A    between atoms: _304  and  _305
REMARK  122  A    between atoms: _304  and  _307
REMARK  123  A    between atoms: _307  and  _308
REMARK  124  A    between atoms: _310  and  _312
REMARK  125  A    between atoms: _312  and  _313
REMARK  126  A    between atoms: _312  and  _315
REMARK  127  A    between atoms: _315  and  _316
REMARK                            x       y       z     vdW  Elec       q    Type
REMARK                         _______ _______ _______ _____ _____    ______ ____
ROOT
ATOM      1  CA  LEU A   1     -25.206  -4.767   0.242  0.00  0.00    +0.133 C 
ENDROOT
BRANCH   1   2
ATOM      2  N   LEU A   1     -26.624  -4.962   0.098  0.00  0.00    -0.239 NA
ATOM      3  H   LEU A   1     -27.090  -5.709   0.652  0.00  0.00    +0.142 HD
ENDBRANCH   1   2
BRANCH   1   4
ATOM      4  C   LEU A   1     -24.434  -5.824  -0.558  0.00  0.00    +0.224 C 
ATOM      5  O   LEU A   1     -24.473  -7.007  -0.225  0.00  0.00    -0.287 OA
ENDBRANCH   1   4
BRANCH   1   6
ATOM      6  CB  LEU A   1     -24.835  -4.855   1.722  0.00  0.00    +0.025 C 
BRANCH   6   7
ATOM      7  CG  LEU A   1     -23.411  -4.523   2.180  0.00  0.00    +0.002 C 
ATOM      8  CD2 LEU A   1     -22.423  -5.601   1.802  0.00  0.00    +0.000 C 
ATOM      9  CD1 LEU A   1     -22.981  -3.170   1.669  0.00  0.00    +0.000 C 
ENDBRANCH   6   7
ENDBRANCH   1   6
TORSDOF 4
REMARK  Name = ../refined-set-2016/4b5t/4b5t_pocket.pdb
REMARK  127 active torsions:
REMARK  status: ('A' for Active; 'I' for Inactive)
REMARK    1  A    between atoms: _1  and  _3
REMARK    2  A    between atoms: _3  and  _4
REMARK    3  A    between atoms: _3  and  _6
REMARK    4  A    between atoms: _6  and  _7
REMARK    5  A    between atoms: _17  and  _19
REMARK    6  A    between atoms: _19  and  _20
REMARK    7  A    between atoms: _19  and  _22
REMARK    8  A    between atoms: _22  and  _23
REMARK    9  A    between atoms: _33  and  _35
REMARK   10  A    between atoms: _35  and  _36
REMARK   11  A    between atoms: _35  and  _38
REMARK   12  A    between atoms: _38  and  _39
REMARK   13  A    between atoms: _42  and  _44
REMARK   14  A    between atoms: _44  and  _45
REMARK   15  A    between atoms: _44  and  _47
REMARK   16  A    between atoms: _47  and  _48
REMARK   17  A    between atoms: _51  and  _53
REMARK   18  A    between atoms: _53  and  _54
REMARK   19  A    between atoms: _53  and  _56
REMARK   20  A    between atoms: _56  and  _57
REMARK   21  A    between atoms: _57  and  _58
REMARK   22  A    between atoms: _61  and  _63
REMARK   23  A    between atoms: _63  and  _64
REMARK   24  A    between atoms: _63  and  _66
REMARK   25  A    between atoms: _66  and  _67
REMARK   26  A    between atoms: _72  and  _74
REMARK   27  A    between atoms: _74  and  _75
REMARK   28  A    between atoms: _74  and  _77
REMARK   29  A    between atoms: _77  and  _78
REMARK   30  A    between atoms: _78  and  _79
REMARK   31  A    between atoms: _79  and  _80
REMARK   32  A    between atoms: _89  and  _91
REMARK   33  A    between atoms: _91  and  _92
REMARK   34  A    between atoms: _91  and  _94
REMARK   35  A    between atoms: _94  and  _95
REMARK   36  A    between atoms: _99  and  _100
REMARK   37  A    between atoms: _105  and  _107
REMARK   38  A    between atoms: _107  and  _108
REMARK   39  A    between atoms: _107  and  _110
REMARK   40  A    between atoms: _110  and  _111
REMARK   41  A    between atoms: _111  and  _112
REMARK   42  A    between atoms: _114  and  _116
REMARK   43  A    between atoms: _116  and  _117
REMARK   44  A    between atoms: _116  and  _119
REMARK   45  A    between atoms: _119  and  _120
REMARK   46  A    between atoms: _120  and  _121
REMARK   47  A    between atoms: _126  and  _128
REMARK   48  A    between atoms: _128  and  _129
REMARK   49  A    between atoms: _128  and  _131
REMARK   50  A    between atoms: _131  and  _132
REMARK   51  A    between atoms: _135  and  _137
REMARK   52  A    between atoms: _137  and  _138
REMARK   53  A    between atoms: _137  and  _140
REMARK   54  A    between atoms: _140  and  _141
REMARK   55  A    between atoms: _141  and  _142
REMARK   56  A    between atoms: _142  and  _143
REMARK   57  A    between atoms: _143  and  CO_319
REMARK   58  A    between atoms: _145  and  _147
REMARK   59  A    between atoms: _147  and  _148
REMARK   60  A    between atoms: _147  and  _150
REMARK   61  A    between atoms: _150  and  _151
REMARK   62  A    between atoms: _157  and  _159
REMARK   63  A    between atoms: _159  and  _160
REMARK   64  A    between atoms: _159  and  _162
REMARK   65  A    between atoms: _162  and  _163
REMARK   66  A    between atoms: _166  and  _168
REMARK   67  A    between atoms: _168  and  _169
REMARK   68  A    between atoms: _172  and  _173
REMARK   69  A    between atoms: _178  and  _180
REMARK   70  A    between atoms: _180  and  _181
REMARK   71  A    between atoms: _184  and  _186
REMARK   72  A    between atoms: _186  and  _187
REMARK   73  A    between atoms: _186  and  _189
REMARK   74  A    between atoms: _189  and  _190
REMARK   75  A    between atoms: _190  and  _192
REMARK   76  A    between atoms: _192  and  CO_319
REMARK   77  A    between atoms: _193  and  _195
REMARK   78  A    between atoms: _195  and  _196
REMARK   79  A    between atoms: _195  and  _198
REMARK   80  A    between atoms: _198  and  _199
REMARK   81  A    between atoms: _202  and  _204
REMARK   82  A    between atoms: _204  and  _205
REMARK   83  A    between atoms: _204  and  _207
REMARK   84  A    between atoms: _207  and  _208
REMARK   85  A    between atoms: _210  and  _212
REMARK   86  A    between atoms: _212  and  _213
REMARK   87  A    between atoms: _216  and  _218
REMARK   88  A    between atoms: _218  and  _219
REMARK   89  A    between atoms: _218  and  _221
REMARK   90  A    between atoms: _221  and  _222
REMARK   91  A    between atoms: _225  and  _227
REMARK   92  A    between atoms: _227  and  _228
REMARK   93  A    between atoms: _231  and  _232
REMARK   94  A    between atoms: _237  and  _239
REMARK   95  A    between atoms: _239  and  _240
REMARK   96  A    between atoms: _239  and  _242
REMARK   97  A    between atoms: _242  and  _243
REMARK   98  A    between atoms: _246  and  _248
REMARK   99  A    between atoms: _248  and  _249
REMARK  100  A    between atoms: _248  and  _251
REMARK  101  A    between atoms: _251  and  _252
REMARK  102  A    between atoms: _255  and  _257
REMARK  103  A    between atoms: _257  and  _258
REMARK  104  A    between atoms: _257  and  _260
REMARK  105  A    between atoms: _260  and  _261
REMARK  106  A    between atoms: _264  and  _266
REMARK  107  A    between atoms: _266  and  _267
REMARK  108  A    between atoms: _270  and  _272
REMARK  109  A    between atoms: _272  and  _273
REMARK  110  A    between atoms: _276  and  _278
REMARK  111  A    between atoms: _278  and  _279
REMARK  112  A    between atoms: _278  and  _281
REMARK  113  A    between atoms: _284  and  _286
REMARK  114  A    between atoms: _286  and  _287
REMARK  115  A    between atoms: _289  and  _291
REMARK  116  A    between atoms: _291  and  _292
REMARK  117  A    between atoms: _291  and  _294
REMARK  118  A    between atoms: _297  and  _299
REMARK  119  A    between atoms: _299  and  _300
REMARK  120  A    between atoms: _302  and  _304
REMARK  121  A    between atoms: _304  and  _305
REMARK  122  A    between atoms: _304  and  _307
REMARK  123  A    between atoms: _307  and  _308
REMARK  124  A    between atoms: _310  and  _312
REMARK  125  A    between atoms: _312  and  _313
REMARK  126  A    between atoms: _312  and  _315
REMARK  127  A    between atoms: _315  and  _316
REMARK                            x       y       z     vdW  Elec       q    Type
REMARK                         _______ _______ _______ _____ _____    ______ ____
ROOT
ATOM      1  CA  ASP A   1     -20.002  -7.490  -0.231  0.00  0.00    +0.144 C 
ENDROOT
BRANCH   1   2
ATOM      2  N   ASP A   1     -21.140  -7.398  -1.089  0.00  0.00    -0.239 NA
ATOM      3  H   ASP A   1     -21.735  -8.239  -1.231  0.00  0.00    +0.142 HD
ENDBRANCH   1   2
BRANCH   1   4
ATOM      4  C   ASP A   1     -18.731  -7.855  -1.001  0.00  0.00    +0.225 C 
ATOM      5  O   ASP A   1     -18.535  -8.967  -1.326  0.00  0.00    -0.287 OA
ENDBRANCH   1   4
BRANCH   1   6
ATOM      6  CB  ASP A   1     -20.228  -8.502   0.869  0.00  0.00    +0.139 C 
BRANCH   6   7
ATOM      7  CG  ASP A   1     -19.204  -8.414   1.998  0.00  0.00    +0.367 C 
ATOM      8  OD2 ASP A   1     -19.413  -9.061   3.006  0.00  0.00    -0.246 OA
ATOM      9  OD1 ASP A   1     -18.272  -7.673   1.911  0.00  0.00    -0.246 OA
ENDBRANCH   6   7
ENDBRANCH   1   6
TORSDOF 4
REMARK  Name = ../refined-set-2016/4b5t/4b5t_pocket.pdb
REMARK  127 active torsions:
REMARK  status: ('A' for Active; 'I' for Inactive)
REMARK    1  A    between atoms: _1  and  _3
REMARK    2  A    between atoms: _3  and  _4
REMARK    3  A    between atoms: _3  and  _6
REMARK    4  A    between atoms: _6  and  _7
REMARK    5  A    between atoms: _17  and  _19
REMARK    6  A    between atoms: _19  and  _20
REMARK    7  A    between atoms: _19  and  _22
REMARK    8  A    between atoms: _22  and  _23
REMARK    9  A    between atoms: _33  and  _35
REMARK   10  A    between atoms: _35  and  _36
REMARK   11  A    between atoms: _35  and  _38
REMARK   12  A    between atoms: _38  and  _39
REMARK   13  A    between atoms: _42  and  _44
REMARK   14  A    between atoms: _44  and  _45
REMARK   15  A    between atoms: _44  and  _47
REMARK   16  A    between atoms: _47  and  _48
REMARK   17  A    between atoms: _51  and  _53
REMARK   18  A    between atoms: _53  and  _54
REMARK   19  A    between atoms: _53  and  _56
REMARK   20  A    between atoms: _56  and  _57
REMARK   21  A    between atoms: _57  and  _58
REMARK   22  A    between atoms: _61  and  _63
REMARK   23  A    between atoms: _63  and  _64
REMARK   24  A    between atoms: _63  and  _66
REMARK   25  A    between atoms: _66  and  _67
REMARK   26  A    between atoms: _72  and  _74
REMARK   27  A    between atoms: _74  and  _75
REMARK   28  A    between atoms: _74  and  _77
REMARK   29  A    between atoms: _77  and  _78
REMARK   30  A    between atoms: _78  and  _79
REMARK   31  A    between atoms: _79  and  _80
REMARK   32  A    between atoms: _89  and  _91
REMARK   33  A    between atoms: _91  and  _92
REMARK   34  A    between atoms: _91  and  _94
REMARK   35  A    between atoms: _94  and  _95
REMARK   36  A    between atoms: _99  and  _100
REMARK   37  A    between atoms: _105  and  _107
REMARK   38  A    between atoms: _107  and  _108
REMARK   39  A    between atoms: _107  and  _110
REMARK   40  A    between atoms: _110  and  _111
REMARK   41  A    between atoms: _111  and  _112
REMARK   42  A    between atoms: _114  and  _116
REMARK   43  A    between atoms: _116  and  _117
REMARK   44  A    between atoms: _116  and  _119
REMARK   45  A    between atoms: _119  and  _120
REMARK   46  A    between atoms: _120  and  _121
REMARK   47  A    between atoms: _126  and  _128
REMARK   48  A    between atoms: _128  and  _129
REMARK   49  A    between atoms: _128  and  _131
REMARK   50  A    between atoms: _131  and  _132
REMARK   51  A    between atoms: _135  and  _137
REMARK   52  A    between atoms: _137  and  _138
REMARK   53  A    between atoms: _137  and  _140
REMARK   54  A    between atoms: _140  and  _141
REMARK   55  A    between atoms: _141  and  _142
REMARK   56  A    between atoms: _142  and  _143
REMARK   57  A    between atoms: _143  and  CO_319
REMARK   58  A    between atoms: _145  and  _147
REMARK   59  A    between atoms: _147  and  _148
REMARK   60  A    between atoms: _147  and  _150
REMARK   61  A    between atoms: _150  and  _151
REMARK   62  A    between atoms: _157  and  _159
REMARK   63  A    between atoms: _159  and  _160
REMARK   64  A    between atoms: _159  and  _162
REMARK   65  A    between atoms: _162  and  _163
REMARK   66  A    between atoms: _166  and  _168
REMARK   67  A    between atoms: _168  and  _169
REMARK   68  A    between atoms: _172  and  _173
REMARK   69  A    between atoms: _178  and  _180
REMARK   70  A    between atoms: _180  and  _181
REMARK   71  A    between atoms: _184  and  _186
REMARK   72  A    between atoms: _186  and  _187
REMARK   73  A    between atoms: _186  and  _189
REMARK   74  A    between atoms: _189  and  _190
REMARK   75  A    between atoms: _190  and  _192
REMARK   76  A    between atoms: _192  and  CO_319
REMARK   77  A    between atoms: _193  and  _195
REMARK   78  A    between atoms: _195  and  _196
REMARK   79  A    between atoms: _195  and  _198
REMARK   80  A    between atoms: _198  and  _199
REMARK   81  A    between atoms: _202  and  _204
REMARK   82  A    between atoms: _204  and  _205
REMARK   83  A    between atoms: _204  and  _207
REMARK   84  A    between atoms: _207  and  _208
REMARK   85  A    between atoms: _210  and  _212
REMARK   86  A    between atoms: _212  and  _213
REMARK   87  A    between atoms: _216  and  _218
REMARK   88  A    between atoms: _218  and  _219
REMARK   89  A    between atoms: _218  and  _221
REMARK   90  A    between atoms: _221  and  _222
REMARK   91  A    between atoms: _225  and  _227
REMARK   92  A    between atoms: _227  and  _228
REMARK   93  A    between atoms: _231  and  _232
REMARK   94  A    between atoms: _237  and  _239
REMARK   95  A    between atoms: _239  and  _240
REMARK   96  A    between atoms: _239  and  _242
REMARK   97  A    between atoms: _242  and  _243
REMARK   98  A    between atoms: _246  and  _248
REMARK   99  A    between atoms: _248  and  _249
REMARK  100  A    between atoms: _248  and  _251
REMARK  101  A    between atoms: _251  and  _252
REMARK  102  A    between atoms: _255  and  _257
REMARK  103  A    between atoms: _257  and  _258
REMARK  104  A    between atoms: _257  and  _260
REMARK  105  A    between atoms: _260  and  _261
REMARK  106  A    between atoms: _264  and  _266
REMARK  107  A    between atoms: _266  and  _267
REMARK  108  A    between atoms: _270  and  _272
REMARK  109  A    between atoms: _272  and  _273
REMARK  110  A    between atoms: _276  and  _278
REMARK  111  A    between atoms: _278  and  _279
REMARK  112  A    between atoms: _278  and  _281
REMARK  113  A    between atoms: _284  and  _286
REMARK  114  A    between atoms: _286  and  _287
REMARK  115  A    between atoms: _289  and  _291
REMARK  116  A    between atoms: _291  and  _292
REMARK  117  A    between atoms: _291  and  _294
REMARK  118  A    between atoms: _297  and  _299
REMARK  119  A    between atoms: _299  and  _300
REMARK  120  A    between atoms: _302  and  _304
REMARK  121  A    between atoms: _304  and  _305
REMARK  122  A    between atoms: _304  and  _307
REMARK  123  A    between atoms: _307  and  _308
REMARK  124  A    between atoms: _310  and  _312
REMARK  125  A    between atoms: _312  and  _313
REMARK  126  A    between atoms: _312  and  _315
REMARK  127  A    between atoms: _315  and  _316
REMARK                            x       y       z     vdW  Elec       q    Type
REMARK                         _______ _______ _______ _____ _____    ______ ____
ROOT
ATOM      1  C   GLU A   1     -14.688  -9.220   1.923  0.00  0.00    +0.238 C 
ATOM      2  N   HIS A   2     -15.826  -9.764   2.311  0.00  0.00    -0.298 N 
ATOM      3  H   HIS A   2     -16.692  -9.193   2.239  0.00  0.00    +0.150 HD
ATOM      4  O   GLU A   1     -13.654  -9.788   1.948  0.00  0.00    -0.274 OA
ENDROOT
BRANCH   1   5
ATOM      5  CA  GLU A   1     -14.732  -7.786   1.445  0.00  0.00    +0.145 C 
BRANCH   5   6
ATOM      6  N   GLU A   1     -15.696  -7.461   0.431  0.00  0.00    -0.238 NA
ATOM      7  H   GLU A   1     -16.629  -7.107   0.725  0.00  0.00    +0.142 HD
ENDBRANCH   5   6
BRANCH   5   8
ATOM      8  CB  GLU A   1     -14.921  -6.891   2.665  0.00  0.00    +0.038 C 
BRANCH   8   9
ATOM      9  CG  GLU A   1     -13.855  -7.078   3.718  0.00  0.00    +0.116 C 
BRANCH   9  10
ATOM     10  CD  GLU A   1     -14.084  -6.333   5.005  0.00  0.00    +0.365 C 
ATOM     11  OE2 GLU A   1     -13.124  -6.129   5.701  0.00  0.00    -0.246 OA
ATOM     12  OE1 GLU A   1     -15.195  -6.003   5.329  0.00  0.00    -0.246 OA
ENDBRANCH   9  10
ENDBRANCH   8   9
ENDBRANCH   5   8
ENDBRANCH   1   5
BRANCH   2  13
ATOM     13  CA  HIS A   2     -15.938 -11.098   2.827  0.00  0.00    +0.143 C 
BRANCH  13  14
ATOM     14  C   HIS A   2     -16.662 -12.074   1.947  0.00  0.00    +0.227 C 
ATOM     15  O   HIS A   2     -16.950 -13.160   2.399  0.00  0.00    -0.286 OA
ENDBRANCH  13  14
BRANCH  13  16
ATOM     16  CB  HIS A   2     -16.553 -11.076   4.220  0.00  0.00    +0.075 C 
BRANCH  16  17
ATOM     17  CG  HIS A   2     -15.648 -10.517   5.261  0.00  0.00    +0.082 A 
ATOM     18  CD2 HIS A   2     -15.698  -9.350   5.961  0.00  0.00    +0.115 A 
ATOM     19  NE2 HIS A   2     -14.642  -9.316   6.743  0.00  0.00    -0.221 NA
ATOM     20  CE1 HIS A   2     -13.950 -10.406   6.560  0.00  0.00    +0.199 A 
ATOM     21  ND1 HIS A   2     -14.566 -11.132   5.661  0.00  0.00    -0.227 NA
ENDBRANCH  16  17
ENDBRANCH  13  16
ENDBRANCH   2  13
TORSDOF 9
REMARK  Name = ../refined-set-2016/4b5t/4b5t_pocket.pdb
REMARK  127 active torsions:
REMARK  status: ('A' for Active; 'I' for Inactive)
REMARK    1  A    between atoms: _1  and  _3
REMARK    2  A    between atoms: _3  and  _4
REMARK    3  A    between atoms: _3  and  _6
REMARK    4  A    between atoms: _6  and  _7
REMARK    5  A    between atoms: _17  and  _19
REMARK    6  A    between atoms: _19  and  _20
REMARK    7  A    between atoms: _19  and  _22
REMARK    8  A    between atoms: _22  and  _23
REMARK    9  A    between atoms: _33  and  _35
REMARK   10  A    between atoms: _35  and  _36
REMARK   11  A    between atoms: _35  and  _38
REMARK   12  A    between atoms: _38  and  _39
REMARK   13  A    between atoms: _42  and  _44
REMARK   14  A    between atoms: _44  and  _45
REMARK   15  A    between atoms: _44  and  _47
REMARK   16  A    between atoms: _47  and  _48
REMARK   17  A    between atoms: _51  and  _53
REMARK   18  A    between atoms: _53  and  _54
REMARK   19  A    between atoms: _53  and  _56
REMARK   20  A    between atoms: _56  and  _57
REMARK   21  A    between atoms: _57  and  _58
REMARK   22  A    between atoms: _61  and  _63
REMARK   23  A    between atoms: _63  and  _64
REMARK   24  A    between atoms: _63  and  _66
REMARK   25  A    between atoms: _66  and  _67
REMARK   26  A    between atoms: _72  and  _74
REMARK   27  A    between atoms: _74  and  _75
REMARK   28  A    between atoms: _74  and  _77
REMARK   29  A    between atoms: _77  and  _78
REMARK   30  A    between atoms: _78  and  _79
REMARK   31  A    between atoms: _79  and  _80
REMARK   32  A    between atoms: _89  and  _91
REMARK   33  A    between atoms: _91  and  _92
REMARK   34  A    between atoms: _91  and  _94
REMARK   35  A    between atoms: _94  and  _95
REMARK   36  A    between atoms: _99  and  _100
REMARK   37  A    between atoms: _105  and  _107
REMARK   38  A    between atoms: _107  and  _108
REMARK   39  A    between atoms: _107  and  _110
REMARK   40  A    between atoms: _110  and  _111
REMARK   41  A    between atoms: _111  and  _112
REMARK   42  A    between atoms: _114  and  _116
REMARK   43  A    between atoms: _116  and  _117
REMARK   44  A    between atoms: _116  and  _119
REMARK   45  A    between atoms: _119  and  _120
REMARK   46  A    between atoms: _120  and  _121
REMARK   47  A    between atoms: _126  and  _128
REMARK   48  A    between atoms: _128  and  _129
REMARK   49  A    between atoms: _128  and  _131
REMARK   50  A    between atoms: _131  and  _132
REMARK   51  A    between atoms: _135  and  _137
REMARK   52  A    between atoms: _137  and  _138
REMARK   53  A    between atoms: _137  and  _140
REMARK   54  A    between atoms: _140  and  _141
REMARK   55  A    between atoms: _141  and  _142
REMARK   56  A    between atoms: _142  and  _143
REMARK   57  A    between atoms: _143  and  CO_319
REMARK   58  A    between atoms: _145  and  _147
REMARK   59  A    between atoms: _147  and  _148
REMARK   60  A    between atoms: _147  and  _150
REMARK   61  A    between atoms: _150  and  _151
REMARK   62  A    between atoms: _157  and  _159
REMARK   63  A    between atoms: _159  and  _160
REMARK   64  A    between atoms: _159  and  _162
REMARK   65  A    between atoms: _162  and  _163
REMARK   66  A    between atoms: _166  and  _168
REMARK   67  A    between atoms: _168  and  _169
REMARK   68  A    between atoms: _172  and  _173
REMARK   69  A    between atoms: _178  and  _180
REMARK   70  A    between atoms: _180  and  _181
REMARK   71  A    between atoms: _184  and  _186
REMARK   72  A    between atoms: _186  and  _187
REMARK   73  A    between atoms: _186  and  _189
REMARK   74  A    between atoms: _189  and  _190
REMARK   75  A    between atoms: _190  and  _192
REMARK   76  A    between atoms: _192  and  CO_319
REMARK   77  A    between atoms: _193  and  _195
REMARK   78  A    between atoms: _195  and  _196
REMARK   79  A    between atoms: _195  and  _198
REMARK   80  A    between atoms: _198  and  _199
REMARK   81  A    between atoms: _202  and  _204
REMARK   82  A    between atoms: _204  and  _205
REMARK   83  A    between atoms: _204  and  _207
REMARK   84  A    between atoms: _207  and  _208
REMARK   85  A    between atoms: _210  and  _212
REMARK   86  A    between atoms: _212  and  _213
REMARK   87  A    between atoms: _216  and  _218
REMARK   88  A    between atoms: _218  and  _219
REMARK   89  A    between atoms: _218  and  _221
REMARK   90  A    between atoms: _221  and  _222
REMARK   91  A    between atoms: _225  and  _227
REMARK   92  A    between atoms: _227  and  _228
REMARK   93  A    between atoms: _231  and  _232
REMARK   94  A    between atoms: _237  and  _239
REMARK   95  A    between atoms: _239  and  _240
REMARK   96  A    between atoms: _239  and  _242
REMARK   97  A    between atoms: _242  and  _243
REMARK   98  A    between atoms: _246  and  _248
REMARK   99  A    between atoms: _248  and  _249
REMARK  100  A    between atoms: _248  and  _251
REMARK  101  A    between atoms: _251  and  _252
REMARK  102  A    between atoms: _255  and  _257
REMARK  103  A    between atoms: _257  and  _258
REMARK  104  A    between atoms: _257  and  _260
REMARK  105  A    between atoms: _260  and  _261
REMARK  106  A    between atoms: _264  and  _266
REMARK  107  A    between atoms: _266  and  _267
REMARK  108  A    between atoms: _270  and  _272
REMARK  109  A    between atoms: _272  and  _273
REMARK  110  A    between atoms: _276  and  _278
REMARK  111  A    between atoms: _278  and  _279
REMARK  112  A    between atoms: _278  and  _281
REMARK  113  A    between atoms: _284  and  _286
REMARK  114  A    between atoms: _286  and  _287
REMARK  115  A    between atoms: _289  and  _291
REMARK  116  A    between atoms: _291  and  _292
REMARK  117  A    between atoms: _291  and  _294
REMARK  118  A    between atoms: _297  and  _299
REMARK  119  A    between atoms: _299  and  _300
REMARK  120  A    between atoms: _302  and  _304
REMARK  121  A    between atoms: _304  and  _305
REMARK  122  A    between atoms: _304  and  _307
REMARK  123  A    between atoms: _307  and  _308
REMARK  124  A    between atoms: _310  and  _312
REMARK  125  A    between atoms: _312  and  _313
REMARK  126  A    between atoms: _312  and  _315
REMARK  127  A    between atoms: _315  and  _316
REMARK                            x       y       z     vdW  Elec       q    Type
REMARK                         _______ _______ _______ _____ _____    ______ ____
ROOT
ATOM      1  NE  ARG A   1     -18.093  -5.523   3.983  0.00  0.00    -0.265 N 
ATOM      2  CZ  ARG A   1     -18.295  -6.095   5.168  0.00  0.00    +0.342 C 
ATOM      3  NH2 ARG A   1     -18.316  -5.341   6.266  0.00  0.00    -0.292 N 
ATOM      4 HH21 ARG A   1     -18.473  -5.780   7.195  0.00  0.00    +0.255 HD
ATOM      5 HH22 ARG A   1     -18.175  -4.313   6.194  0.00  0.00    +0.255 HD
ATOM      6  NH1 ARG A   1     -18.495  -7.410   5.256  0.00  0.00    -0.292 N 
ATOM      7 HH11 ARG A   1     -18.652  -7.851   6.185  0.00  0.00    +0.255 HD
ATOM      8 HH12 ARG A   1     -18.494  -7.995   4.396  0.00  0.00    +0.255 HD
ATOM      9  HE  ARG A   1     -18.109  -6.128   3.137  0.00  0.00    +0.259 HD
ENDROOT
BRANCH   1  10
ATOM     10  CD  ARG A   1     -17.851  -4.101   3.803  0.00  0.00    +0.174 C 
BRANCH  10  11
ATOM     11  CG  ARG A   1     -17.557  -3.702   2.349  0.00  0.00    +0.045 C 
BRANCH  11  12
ATOM     12  CB  ARG A   1     -18.770  -3.636   1.444  0.00  0.00    +0.029 C 
BRANCH  12  13
ATOM     13  CA  ARG A   1     -18.494  -2.698   0.276  0.00  0.00    +0.133 C 
BRANCH  13  14
ATOM     14  N   ARG A   1     -19.586  -2.708  -0.650  0.00  0.00    -0.239 NA
ATOM     15  H   ARG A   1     -20.014  -3.615  -0.925  0.00  0.00    +0.142 HD
ENDBRANCH  13  14
BRANCH  13  16
ATOM     16  C   ARG A   1     -17.163  -3.114  -0.390  0.00  0.00    +0.224 C 
ATOM     17  O   ARG A   1     -16.984  -4.280  -0.695  0.00  0.00    -0.287 OA
ENDBRANCH  13  16
ENDBRANCH  12  13
ENDBRANCH  11  12
ENDBRANCH  10  11
ENDBRANCH   1  10
TORSDOF 6
REMARK  Name = ../refined-set-2016/4b5t/4b5t_pocket.pdb
REMARK  127 active torsions:
REMARK  status: ('A' for Active; 'I' for Inactive)
REMARK    1  A    between atoms: _1  and  _3
REMARK    2  A    between atoms: _3  and  _4
REMARK    3  A    between atoms: _3  and  _6
REMARK    4  A    between atoms: _6  and  _7
REMARK    5  A    between atoms: _17  and  _19
REMARK    6  A    between atoms: _19  and  _20
REMARK    7  A    between atoms: _19  and  _22
REMARK    8  A    between atoms: _22  and  _23
REMARK    9  A    between atoms: _33  and  _35
REMARK   10  A    between atoms: _35  and  _36
REMARK   11  A    between atoms: _35  and  _38
REMARK   12  A    between atoms: _38  and  _39
REMARK   13  A    between atoms: _42  and  _44
REMARK   14  A    between atoms: _44  and  _45
REMARK   15  A    between atoms: _44  and  _47
REMARK   16  A    between atoms: _47  and  _48
REMARK   17  A    between atoms: _51  and  _53
REMARK   18  A    between atoms: _53  and  _54
REMARK   19  A    between atoms: _53  and  _56
REMARK   20  A    between atoms: _56  and  _57
REMARK   21  A    between atoms: _57  and  _58
REMARK   22  A    between atoms: _61  and  _63
REMARK   23  A    between atoms: _63  and  _64
REMARK   24  A    between atoms: _63  and  _66
REMARK   25  A    between atoms: _66  and  _67
REMARK   26  A    between atoms: _72  and  _74
REMARK   27  A    between atoms: _74  and  _75
REMARK   28  A    between atoms: _74  and  _77
REMARK   29  A    between atoms: _77  and  _78
REMARK   30  A    between atoms: _78  and  _79
REMARK   31  A    between atoms: _79  and  _80
REMARK   32  A    between atoms: _89  and  _91
REMARK   33  A    between atoms: _91  and  _92
REMARK   34  A    between atoms: _91  and  _94
REMARK   35  A    between atoms: _94  and  _95
REMARK   36  A    between atoms: _99  and  _100
REMARK   37  A    between atoms: _105  and  _107
REMARK   38  A    between atoms: _107  and  _108
REMARK   39  A    between atoms: _107  and  _110
REMARK   40  A    between atoms: _110  and  _111
REMARK   41  A    between atoms: _111  and  _112
REMARK   42  A    between atoms: _114  and  _116
REMARK   43  A    between atoms: _116  and  _117
REMARK   44  A    between atoms: _116  and  _119
REMARK   45  A    between atoms: _119  and  _120
REMARK   46  A    between atoms: _120  and  _121
REMARK   47  A    between atoms: _126  and  _128
REMARK   48  A    between atoms: _128  and  _129
REMARK   49  A    between atoms: _128  and  _131
REMARK   50  A    between atoms: _131  and  _132
REMARK   51  A    between atoms: _135  and  _137
REMARK   52  A    between atoms: _137  and  _138
REMARK   53  A    between atoms: _137  and  _140
REMARK   54  A    between atoms: _140  and  _141
REMARK   55  A    between atoms: _141  and  _142
REMARK   56  A    between atoms: _142  and  _143
REMARK   57  A    between atoms: _143  and  CO_319
REMARK   58  A    between atoms: _145  and  _147
REMARK   59  A    between atoms: _147  and  _148
REMARK   60  A    between atoms: _147  and  _150
REMARK   61  A    between atoms: _150  and  _151
REMARK   62  A    between atoms: _157  and  _159
REMARK   63  A    between atoms: _159  and  _160
REMARK   64  A    between atoms: _159  and  _162
REMARK   65  A    between atoms: _162  and  _163
REMARK   66  A    between atoms: _166  and  _168
REMARK   67  A    between atoms: _168  and  _169
REMARK   68  A    between atoms: _172  and  _173
REMARK   69  A    between atoms: _178  and  _180
REMARK   70  A    between atoms: _180  and  _181
REMARK   71  A    between atoms: _184  and  _186
REMARK   72  A    between atoms: _186  and  _187
REMARK   73  A    between atoms: _186  and  _189
REMARK   74  A    between atoms: _189  and  _190
REMARK   75  A    between atoms: _190  and  _192
REMARK   76  A    between atoms: _192  and  CO_319
REMARK   77  A    between atoms: _193  and  _195
REMARK   78  A    between atoms: _195  and  _196
REMARK   79  A    between atoms: _195  and  _198
REMARK   80  A    between atoms: _198  and  _199
REMARK   81  A    between atoms: _202  and  _204
REMARK   82  A    between atoms: _204  and  _205
REMARK   83  A    between atoms: _204  and  _207
REMARK   84  A    between atoms: _207  and  _208
REMARK   85  A    between atoms: _210  and  _212
REMARK   86  A    between atoms: _212  and  _213
REMARK   87  A    between atoms: _216  and  _218
REMARK   88  A    between atoms: _218  and  _219
REMARK   89  A    between atoms: _218  and  _221
REMARK   90  A    between atoms: _221  and  _222
REMARK   91  A    between atoms: _225  and  _227
REMARK   92  A    between atoms: _227  and  _228
REMARK   93  A    between atoms: _231  and  _232
REMARK   94  A    between atoms: _237  and  _239
REMARK   95  A    between atoms: _239  and  _240
REMARK   96  A    between atoms: _239  and  _242
REMARK   97  A    between atoms: _242  and  _243
REMARK   98  A    between atoms: _246  and  _248
REMARK   99  A    between atoms: _248  and  _249
REMARK  100  A    between atoms: _248  and  _251
REMARK  101  A    between atoms: _251  and  _252
REMARK  102  A    between atoms: _255  and  _257
REMARK  103  A    between atoms: _257  and  _258
REMARK  104  A    between atoms: _257  and  _260
REMARK  105  A    between atoms: _260  and  _261
REMARK  106  A    between atoms: _264  and  _266
REMARK  107  A    between atoms: _266  and  _267
REMARK  108  A    between atoms: _270  and  _272
REMARK  109  A    between atoms: _272  and  _273
REMARK  110  A    between atoms: _276  and  _278
REMARK  111  A    between atoms: _278  and  _279
REMARK  112  A    between atoms: _278  and  _281
REMARK  113  A    between atoms: _284  and  _286
REMARK  114  A    between atoms: _286  and  _287
REMARK  115  A    between atoms: _289  and  _291
REMARK  116  A    between atoms: _291  and  _292
REMARK  117  A    between atoms: _291  and  _294
REMARK  118  A    between atoms: _297  and  _299
REMARK  119  A    between atoms: _299  and  _300
REMARK  120  A    between atoms: _302  and  _304
REMARK  121  A    between atoms: _304  and  _305
REMARK  122  A    between atoms: _304  and  _307
REMARK  123  A    between atoms: _307  and  _308
REMARK  124  A    between atoms: _310  and  _312
REMARK  125  A    between atoms: _312  and  _313
REMARK  126  A    between atoms: _312  and  _315
REMARK  127  A    between atoms: _315  and  _316
REMARK                            x       y       z     vdW  Elec       q    Type
REMARK                         _______ _______ _______ _____ _____    ______ ____
ROOT
ATOM      1  CA  LEU A   1     -19.672   0.988   2.855  0.00  0.00    +0.133 C 
ENDROOT
BRANCH   1   2
ATOM      2  N   LEU A   1     -19.896   1.311   1.455  0.00  0.00    -0.239 NA
ATOM      3  H   LEU A   1     -19.887   0.540   0.757  0.00  0.00    +0.142 HD
ENDBRANCH   1   2
BRANCH   1   4
ATOM      4  C   LEU A   1     -18.200   0.604   3.060  0.00  0.00    +0.224 C 
ATOM      5  O   LEU A   1     -17.776  -0.471   2.671  0.00  0.00    -0.287 OA
ENDBRANCH   1   4
BRANCH   1   6
ATOM      6  CB  LEU A   1     -20.585  -0.150   3.285  0.00  0.00    +0.025 C 
BRANCH   6   7
ATOM      7  CG  LEU A   1     -20.376  -0.600   4.743  0.00  0.00    +0.002 C 
ATOM      8  CD2 LEU A   1     -20.759   0.528   5.681  0.00  0.00    +0.000 C 
ATOM      9  CD1 LEU A   1     -21.171  -1.847   5.025  0.00  0.00    +0.000 C 
ENDBRANCH   6   7
ENDBRANCH   1   6
TORSDOF 4
REMARK  Name = ../refined-set-2016/4b5t/4b5t_pocket.pdb
REMARK  127 active torsions:
REMARK  status: ('A' for Active; 'I' for Inactive)
REMARK    1  A    between atoms: _1  and  _3
REMARK    2  A    between atoms: _3  and  _4
REMARK    3  A    between atoms: _3  and  _6
REMARK    4  A    between atoms: _6  and  _7
REMARK    5  A    between atoms: _17  and  _19
REMARK    6  A    between atoms: _19  and  _20
REMARK    7  A    between atoms: _19  and  _22
REMARK    8  A    between atoms: _22  and  _23
REMARK    9  A    between atoms: _33  and  _35
REMARK   10  A    between atoms: _35  and  _36
REMARK   11  A    between atoms: _35  and  _38
REMARK   12  A    between atoms: _38  and  _39
REMARK   13  A    between atoms: _42  and  _44
REMARK   14  A    between atoms: _44  and  _45
REMARK   15  A    between atoms: _44  and  _47
REMARK   16  A    between atoms: _47  and  _48
REMARK   17  A    between atoms: _51  and  _53
REMARK   18  A    between atoms: _53  and  _54
REMARK   19  A    between atoms: _53  and  _56
REMARK   20  A    between atoms: _56  and  _57
REMARK   21  A    between atoms: _57  and  _58
REMARK   22  A    between atoms: _61  and  _63
REMARK   23  A    between atoms: _63  and  _64
REMARK   24  A    between atoms: _63  and  _66
REMARK   25  A    between atoms: _66  and  _67
REMARK   26  A    between atoms: _72  and  _74
REMARK   27  A    between atoms: _74  and  _75
REMARK   28  A    between atoms: _74  and  _77
REMARK   29  A    between atoms: _77  and  _78
REMARK   30  A    between atoms: _78  and  _79
REMARK   31  A    between atoms: _79  and  _80
REMARK   32  A    between atoms: _89  and  _91
REMARK   33  A    between atoms: _91  and  _92
REMARK   34  A    between atoms: _91  and  _94
REMARK   35  A    between atoms: _94  and  _95
REMARK   36  A    between atoms: _99  and  _100
REMARK   37  A    between atoms: _105  and  _107
REMARK   38  A    between atoms: _107  and  _108
REMARK   39  A    between atoms: _107  and  _110
REMARK   40  A    between atoms: _110  and  _111
REMARK   41  A    between atoms: _111  and  _112
REMARK   42  A    between atoms: _114  and  _116
REMARK   43  A    between atoms: _116  and  _117
REMARK   44  A    between atoms: _116  and  _119
REMARK   45  A    between atoms: _119  and  _120
REMARK   46  A    between atoms: _120  and  _121
REMARK   47  A    between atoms: _126  and  _128
REMARK   48  A    between atoms: _128  and  _129
REMARK   49  A    between atoms: _128  and  _131
REMARK   50  A    between atoms: _131  and  _132
REMARK   51  A    between atoms: _135  and  _137
REMARK   52  A    between atoms: _137  and  _138
REMARK   53  A    between atoms: _137  and  _140
REMARK   54  A    between atoms: _140  and  _141
REMARK   55  A    between atoms: _141  and  _142
REMARK   56  A    between atoms: _142  and  _143
REMARK   57  A    between atoms: _143  and  CO_319
REMARK   58  A    between atoms: _145  and  _147
REMARK   59  A    between atoms: _147  and  _148
REMARK   60  A    between atoms: _147  and  _150
REMARK   61  A    between atoms: _150  and  _151
REMARK   62  A    between atoms: _157  and  _159
REMARK   63  A    between atoms: _159  and  _160
REMARK   64  A    between atoms: _159  and  _162
REMARK   65  A    between atoms: _162  and  _163
REMARK   66  A    between atoms: _166  and  _168
REMARK   67  A    between atoms: _168  and  _169
REMARK   68  A    between atoms: _172  and  _173
REMARK   69  A    between atoms: _178  and  _180
REMARK   70  A    between atoms: _180  and  _181
REMARK   71  A    between atoms: _184  and  _186
REMARK   72  A    between atoms: _186  and  _187
REMARK   73  A    between atoms: _186  and  _189
REMARK   74  A    between atoms: _189  and  _190
REMARK   75  A    between atoms: _190  and  _192
REMARK   76  A    between atoms: _192  and  CO_319
REMARK   77  A    between atoms: _193  and  _195
REMARK   78  A    between atoms: _195  and  _196
REMARK   79  A    between atoms: _195  and  _198
REMARK   80  A    between atoms: _198  and  _199
REMARK   81  A    between atoms: _202  and  _204
REMARK   82  A    between atoms: _204  and  _205
REMARK   83  A    between atoms: _204  and  _207
REMARK   84  A    between atoms: _207  and  _208
REMARK   85  A    between atoms: _210  and  _212
REMARK   86  A    between atoms: _212  and  _213
REMARK   87  A    between atoms: _216  and  _218
REMARK   88  A    between atoms: _218  and  _219
REMARK   89  A    between atoms: _218  and  _221
REMARK   90  A    between atoms: _221  and  _222
REMARK   91  A    between atoms: _225  and  _227
REMARK   92  A    between atoms: _227  and  _228
REMARK   93  A    between atoms: _231  and  _232
REMARK   94  A    between atoms: _237  and  _239
REMARK   95  A    between atoms: _239  and  _240
REMARK   96  A    between atoms: _239  and  _242
REMARK   97  A    between atoms: _242  and  _243
REMARK   98  A    between atoms: _246  and  _248
REMARK   99  A    between atoms: _248  and  _249
REMARK  100  A    between atoms: _248  and  _251
REMARK  101  A    between atoms: _251  and  _252
REMARK  102  A    between atoms: _255  and  _257
REMARK  103  A    between atoms: _257  and  _258
REMARK  104  A    between atoms: _257  and  _260
REMARK  105  A    between atoms: _260  and  _261
REMARK  106  A    between atoms: _264  and  _266
REMARK  107  A    between atoms: _266  and  _267
REMARK  108  A    between atoms: _270  and  _272
REMARK  109  A    between atoms: _272  and  _273
REMARK  110  A    between atoms: _276  and  _278
REMARK  111  A    between atoms: _278  and  _279
REMARK  112  A    between atoms: _278  and  _281
REMARK  113  A    between atoms: _284  and  _286
REMARK  114  A    between atoms: _286  and  _287
REMARK  115  A    between atoms: _289  and  _291
REMARK  116  A    between atoms: _291  and  _292
REMARK  117  A    between atoms: _291  and  _294
REMARK  118  A    between atoms: _297  and  _299
REMARK  119  A    between atoms: _299  and  _300
REMARK  120  A    between atoms: _302  and  _304
REMARK  121  A    between atoms: _304  and  _305
REMARK  122  A    between atoms: _304  and  _307
REMARK  123  A    between atoms: _307  and  _308
REMARK  124  A    between atoms: _310  and  _312
REMARK  125  A    between atoms: _312  and  _313
REMARK  126  A    between atoms: _312  and  _315
REMARK  127  A    between atoms: _315  and  _316
REMARK                            x       y       z     vdW  Elec       q    Type
REMARK                         _______ _______ _______ _____ _____    ______ ____
ROOT
ATOM      1  C   PRO A   1     -13.252  -0.566   6.929  0.00  0.00    +0.239 C 
ATOM      2  N   MET A   2     -13.196  -0.847   8.223  0.00  0.00    -0.298 N 
ATOM      3  H   MET A   2     -14.014  -1.315   8.663  0.00  0.00    +0.150 HD
ATOM      4  O   PRO A   1     -12.445   0.162   6.361  0.00  0.00    -0.274 OA
ENDROOT
BRANCH   1   6
ATOM      5  N   PRO A   1     -14.847  -0.480   4.966  0.00  0.00    -0.210 NA
ATOM      6  CA  PRO A   1     -14.444  -1.186   6.196  0.00  0.00    +0.149 C 
ATOM      7  CB  PRO A   1     -14.094  -2.601   5.710  0.00  0.00    +0.028 C 
ATOM      8  CG  PRO A   1     -13.788  -2.462   4.274  0.00  0.00    +0.021 C 
ATOM      9  CD  PRO A   1     -14.479  -1.222   3.747  0.00  0.00    +0.089 C 
ENDBRANCH   1   6
BRANCH   2  10
ATOM     10  CA  MET A   2     -12.033  -0.530   9.070  0.00  0.00    +0.138 C 
BRANCH  10  11
ATOM     11  C   MET A   2     -11.590   0.910   9.003  0.00  0.00    +0.227 C 
ATOM     12  O   MET A   2     -10.415   1.200   8.816  0.00  0.00    -0.286 OA
ENDBRANCH  10  11
BRANCH  10  13
ATOM     13  CB  MET A   2     -10.860  -1.463   8.734  0.00  0.00    +0.039 C 
BRANCH  13  14
ATOM     14  CG  MET A   2     -11.008  -2.842   9.333  0.00  0.00    +0.060 C 
BRANCH  14  15
ATOM     15  SD  MET A   2     -11.013  -2.788  11.161  0.00  0.00    -0.139 S 
ATOM     16  CE  MET A   2     -12.005  -4.243  11.484  0.00  0.00    +0.069 C 
ENDBRANCH  14  15
ENDBRANCH  13  14
ENDBRANCH  10  13
ENDBRANCH   2  10
TORSDOF 6
REMARK  Name = ../refined-set-2016/4b5t/4b5t_pocket.pdb
REMARK  127 active torsions:
REMARK  status: ('A' for Active; 'I' for Inactive)
REMARK    1  A    between atoms: _1  and  _3
REMARK    2  A    between atoms: _3  and  _4
REMARK    3  A    between atoms: _3  and  _6
REMARK    4  A    between atoms: _6  and  _7
REMARK    5  A    between atoms: _17  and  _19
REMARK    6  A    between atoms: _19  and  _20
REMARK    7  A    between atoms: _19  and  _22
REMARK    8  A    between atoms: _22  and  _23
REMARK    9  A    between atoms: _33  and  _35
REMARK   10  A    between atoms: _35  and  _36
REMARK   11  A    between atoms: _35  and  _38
REMARK   12  A    between atoms: _38  and  _39
REMARK   13  A    between atoms: _42  and  _44
REMARK   14  A    between atoms: _44  and  _45
REMARK   15  A    between atoms: _44  and  _47
REMARK   16  A    between atoms: _47  and  _48
REMARK   17  A    between atoms: _51  and  _53
REMARK   18  A    between atoms: _53  and  _54
REMARK   19  A    between atoms: _53  and  _56
REMARK   20  A    between atoms: _56  and  _57
REMARK   21  A    between atoms: _57  and  _58
REMARK   22  A    between atoms: _61  and  _63
REMARK   23  A    between atoms: _63  and  _64
REMARK   24  A    between atoms: _63  and  _66
REMARK   25  A    between atoms: _66  and  _67
REMARK   26  A    between atoms: _72  and  _74
REMARK   27  A    between atoms: _74  and  _75
REMARK   28  A    between atoms: _74  and  _77
REMARK   29  A    between atoms: _77  and  _78
REMARK   30  A    between atoms: _78  and  _79
REMARK   31  A    between atoms: _79  and  _80
REMARK   32  A    between atoms: _89  and  _91
REMARK   33  A    between atoms: _91  and  _92
REMARK   34  A    between atoms: _91  and  _94
REMARK   35  A    between atoms: _94  and  _95
REMARK   36  A    between atoms: _99  and  _100
REMARK   37  A    between atoms: _105  and  _107
REMARK   38  A    between atoms: _107  and  _108
REMARK   39  A    between atoms: _107  and  _110
REMARK   40  A    between atoms: _110  and  _111
REMARK   41  A    between atoms: _111  and  _112
REMARK   42  A    between atoms: _114  and  _116
REMARK   43  A    between atoms: _116  and  _117
REMARK   44  A    between atoms: _116  and  _119
REMARK   45  A    between atoms: _119  and  _120
REMARK   46  A    between atoms: _120  and  _121
REMARK   47  A    between atoms: _126  and  _128
REMARK   48  A    between atoms: _128  and  _129
REMARK   49  A    between atoms: _128  and  _131
REMARK   50  A    between atoms: _131  and  _132
REMARK   51  A    between atoms: _135  and  _137
REMARK   52  A    between atoms: _137  and  _138
REMARK   53  A    between atoms: _137  and  _140
REMARK   54  A    between atoms: _140  and  _141
REMARK   55  A    between atoms: _141  and  _142
REMARK   56  A    between atoms: _142  and  _143
REMARK   57  A    between atoms: _143  and  CO_319
REMARK   58  A    between atoms: _145  and  _147
REMARK   59  A    between atoms: _147  and  _148
REMARK   60  A    between atoms: _147  and  _150
REMARK   61  A    between atoms: _150  and  _151
REMARK   62  A    between atoms: _157  and  _159
REMARK   63  A    between atoms: _159  and  _160
REMARK   64  A    between atoms: _159  and  _162
REMARK   65  A    between atoms: _162  and  _163
REMARK   66  A    between atoms: _166  and  _168
REMARK   67  A    between atoms: _168  and  _169
REMARK   68  A    between atoms: _172  and  _173
REMARK   69  A    between atoms: _178  and  _180
REMARK   70  A    between atoms: _180  and  _181
REMARK   71  A    between atoms: _184  and  _186
REMARK   72  A    between atoms: _186  and  _187
REMARK   73  A    between atoms: _186  and  _189
REMARK   74  A    between atoms: _189  and  _190
REMARK   75  A    between atoms: _190  and  _192
REMARK   76  A    between atoms: _192  and  CO_319
REMARK   77  A    between atoms: _193  and  _195
REMARK   78  A    between atoms: _195  and  _196
REMARK   79  A    between atoms: _195  and  _198
REMARK   80  A    between atoms: _198  and  _199
REMARK   81  A    between atoms: _202  and  _204
REMARK   82  A    between atoms: _204  and  _205
REMARK   83  A    between atoms: _204  and  _207
REMARK   84  A    between atoms: _207  and  _208
REMARK   85  A    between atoms: _210  and  _212
REMARK   86  A    between atoms: _212  and  _213
REMARK   87  A    between atoms: _216  and  _218
REMARK   88  A    between atoms: _218  and  _219
REMARK   89  A    between atoms: _218  and  _221
REMARK   90  A    between atoms: _221  and  _222
REMARK   91  A    between atoms: _225  and  _227
REMARK   92  A    between atoms: _227  and  _228
REMARK   93  A    between atoms: _231  and  _232
REMARK   94  A    between atoms: _237  and  _239
REMARK   95  A    between atoms: _239  and  _240
REMARK   96  A    between atoms: _239  and  _242
REMARK   97  A    between atoms: _242  and  _243
REMARK   98  A    between atoms: _246  and  _248
REMARK   99  A    between atoms: _248  and  _249
REMARK  100  A    between atoms: _248  and  _251
REMARK  101  A    between atoms: _251  and  _252
REMARK  102  A    between atoms: _255  and  _257
REMARK  103  A    between atoms: _257  and  _258
REMARK  104  A    between atoms: _257  and  _260
REMARK  105  A    between atoms: _260  and  _261
REMARK  106  A    between atoms: _264  and  _266
REMARK  107  A    between atoms: _266  and  _267
REMARK  108  A    between atoms: _270  and  _272
REMARK  109  A    between atoms: _272  and  _273
REMARK  110  A    between atoms: _276  and  _278
REMARK  111  A    between atoms: _278  and  _279
REMARK  112  A    between atoms: _278  and  _281
REMARK  113  A    between atoms: _284  and  _286
REMARK  114  A    between atoms: _286  and  _287
REMARK  115  A    between atoms: _289  and  _291
REMARK  116  A    between atoms: _291  and  _292
REMARK  117  A    between atoms: _291  and  _294
REMARK  118  A    between atoms: _297  and  _299
REMARK  119  A    between atoms: _299  and  _300
REMARK  120  A    between atoms: _302  and  _304
REMARK  121  A    between atoms: _304  and  _305
REMARK  122  A    between atoms: _304  and  _307
REMARK  123  A    between atoms: _307  and  _308
REMARK  124  A    between atoms: _310  and  _312
REMARK  125  A    between atoms: _312  and  _313
REMARK  126  A    between atoms: _312  and  _315
REMARK  127  A    between atoms: _315  and  _316
REMARK                            x       y       z     vdW  Elec       q    Type
REMARK                         _______ _______ _______ _____ _____    ______ ____
ROOT
ATOM      1  C   UNK A   6     -15.588  -7.308  14.647  0.00  0.00    +0.000 C 
ENDROOT
BRANCH   1   2
ATOM      2  N   UNK A   6     -16.973  -7.795  14.636  0.00  0.00    +0.000 N 
ATOM      3  C   ALA A   5     -17.421  -8.689  15.526  0.00  0.00    +0.000 C 
ATOM      4  O   ALA A   5     -16.734  -9.130  16.452  0.00  0.00    +0.000 OA
ATOM      5  H   UNK A   6     -17.627  -7.434  13.913  0.00  0.00    +0.000 HD
BRANCH   3   6
ATOM      6  CA  ALA A   5     -18.880  -9.126  15.382  0.00  0.00    +0.000 C 
ATOM      7  CB  ALA A   5     -19.062 -10.024  14.164  0.00  0.00    +0.000 C 
BRANCH   6   8
ATOM      8  N   ALA A   5     -19.735  -7.959  15.272  0.00  0.00    +0.000 N 
ATOM      9  C   PRO A   4     -19.900  -7.130  16.290  0.00  0.00    +0.000 C 
ATOM     10  O   PRO A   4     -19.340  -7.270  17.369  0.00  0.00    +0.000 OA
ATOM     11  H   ALA A   5     -20.228  -7.770  14.376  0.00  0.00    +0.000 HD
BRANCH   9  12
ATOM     12  CA  PRO A   4     -20.851  -5.963  16.081  0.00  0.00    +0.000 C 
ATOM     13  CB  PRO A   4     -22.289  -6.425  16.293  0.00  0.00    +0.000 C 
ATOM     14  CG  PRO A   4     -23.082  -5.726  15.275  0.00  0.00    +0.000 C 
ATOM     15  CD  PRO A   4     -22.195  -5.553  14.098  0.00  0.00    +0.000 C 
ATOM     16  N   PRO A   4     -20.861  -5.437  14.712  0.00  0.00    +0.000 N 
ATOM     17  C   UNK A   3     -19.782  -4.809  14.200  0.00  0.00    +0.000 C 
ATOM     18  O   UNK A   3     -18.717  -4.730  14.793  0.00  0.00    +0.000 OA
BRANCH  17  19
ATOM     19  C   UNK A   3     -19.949  -4.120  12.861  0.00  0.00    +0.000 C 
BRANCH  19  20
ATOM     20  N   UNK A   3     -20.029  -2.693  13.110  0.00  0.00    +0.000 N 
ATOM     21  H   UNK A   3     -19.155  -2.164  13.304  0.00  0.00    +0.000 HD
ATOM     22  C   ILE A   2     -21.189  -2.041  13.097  0.00  0.00    +0.000 C 
ATOM     23  O   ILE A   2     -22.265  -2.582  12.848  0.00  0.00    +0.000 OA
BRANCH  22  24
ATOM     24  CA  ILE A   2     -21.130  -0.572  13.417  0.00  0.00    +0.000 C 
BRANCH  24  25
ATOM     25  N   ILE A   2     -21.824   0.163  12.353  0.00  0.00    +0.000 N 
ATOM     26  H   ILE A   2     -22.861   0.123  12.285  0.00  0.00    +0.000 HD
ATOM     27  C   PHE A   1     -21.132   0.876  11.480  0.00  0.00    +0.000 C 
ATOM     28  O   PHE A   1     -19.902   0.998  11.550  0.00  0.00    +0.000 OA
BRANCH  27  29
ATOM     29  CA  PHE A   1     -21.914   1.557  10.383  0.00  0.00    +0.000 C 
BRANCH  29  30
ATOM     30  N   PHE A   1     -21.434   2.917  10.233  0.00  0.00    +0.000 NA
ATOM     31  H   PHE A   1     -20.534   3.065   9.733  0.00  0.00    +0.000 HD
ENDBRANCH  29  30
BRANCH  29  32
ATOM     32  CB  PHE A   1     -21.670   0.817   9.051  0.00  0.00    +0.000 C 
BRANCH  32  33
ATOM     33  CG  PHE A   1     -22.043  -0.627   9.071  0.00  0.00    +0.000 A 
ATOM     34  CD2 PHE A   1     -21.128  -1.586   9.433  0.00  0.00    +0.000 A 
ATOM     35  CE2 PHE A   1     -21.456  -2.923   9.416  0.00  0.00    +0.000 A 
ATOM     36  CZ  PHE A   1     -22.705  -3.310   9.015  0.00  0.00    +0.000 A 
ATOM     37  CE1 PHE A   1     -23.624  -2.386   8.641  0.00  0.00    +0.000 A 
ATOM     38  CD1 PHE A   1     -23.302  -1.032   8.673  0.00  0.00    +0.000 A 
ENDBRANCH  32  33
ENDBRANCH  29  32
ENDBRANCH  27  29
ENDBRANCH  24  25
BRANCH  24  39
ATOM     39  CB  ILE A   2     -21.779  -0.369  14.810  0.00  0.00    +0.000 C 
ATOM     40  CG2 ILE A   2     -21.039  -1.150  15.860  0.00  0.00    +0.000 C 
BRANCH  39  41
ATOM     41  CG1 ILE A   2     -21.774   1.110  15.206  0.00  0.00    +0.000 C 
ATOM     42  CD1 ILE A   2     -23.139   1.616  15.589  0.00  0.00    +0.000 C 
ENDBRANCH  39  41
ENDBRANCH  24  39
ENDBRANCH  22  24
ENDBRANCH  19  20
ENDBRANCH  17  19
ENDBRANCH   9  12
ENDBRANCH   6   8
ENDBRANCH   3   6
ENDBRANCH   1   2
BRANCH   1  43
ATOM     43  C   UNK A   6     -15.350  -6.516  15.932  0.00  0.00    +0.000 C 
ATOM     44  O   UNK A   6     -14.300  -6.644  16.588  0.00  0.00    +0.000 OA
ATOM     45  N   LEU A   7     -16.335  -5.707  16.303  0.00  0.00    +0.000 N 
ATOM     46  H   LEU A   7     -17.198  -5.646  15.726  0.00  0.00    +0.000 HD
BRANCH  45  47
ATOM     47  CA  LEU A   7     -16.216  -4.904  17.512  0.00  0.00    +0.000 C 
BRANCH  47  48
ATOM     48  C   LEU A   7     -16.121  -5.808  18.727  0.00  0.00    +0.000 C 
ATOM     49  O   LEU A   7     -15.260  -5.614  19.578  0.00  0.00    +0.000 OA
ATOM     50  N   SER A   8     -16.992  -6.807  18.811  0.00  0.00    +0.000 N 
ATOM     51  H   SER A   8     -17.698  -6.956  18.062  0.00  0.00    +0.000 HD
BRANCH  50  52
ATOM     52  CA  SER A   8     -16.945  -7.692  19.968  0.00  0.00    +0.000 C 
BRANCH  52  53
ATOM     53  C   SER A   8     -15.599  -8.416  20.014  0.00  0.00    +0.000 C 
ATOM     54  O   SER A   8     -15.021  -8.581  21.079  0.00  0.00    +0.000 OA
ATOM     55  N   ALA A   9     -15.081  -8.812  18.855  0.00  0.00    +0.000 N 
ATOM     56  H   ALA A   9     -15.608  -8.655  17.972  0.00  0.00    +0.000 HD
BRANCH  55  57
ATOM     57  CA  ALA A   9     -13.775  -9.466  18.816  0.00  0.00    +0.000 C 
ATOM     58  CB  ALA A   9     -13.442  -9.910  17.409  0.00  0.00    +0.000 C 
BRANCH  57  59
ATOM     59  C   ALA A   9     -12.712  -8.513  19.355  0.00  0.00    +0.000 C 
ATOM     60  O   ALA A   9     -11.909  -8.882  20.217  0.00  0.00    +0.000 OA
ATOM     61  N   ASP A  10     -12.716  -7.271  18.881  0.00  0.00    +0.000 N 
ATOM     62  H   ASP A  10     -13.416  -6.985  18.167  0.00  0.00    +0.000 HD
BRANCH  61  63
ATOM     63  CA  ASP A  10     -11.734  -6.316  19.369  0.00  0.00    +0.000 C 
BRANCH  63  64
ATOM     64  C   ASP A  10     -11.848  -6.093  20.879  0.00  0.00    +0.000 C 
ATOM     65  O   ASP A  10     -10.844  -5.838  21.533  0.00  0.00    +0.000 OA
ENDBRANCH  63  64
BRANCH  63  66
ATOM     66  CB  ASP A  10     -11.835  -4.974  18.657  0.00  0.00    +0.000 C 
BRANCH  66  67
ATOM     67  CG  ASP A  10     -10.579  -4.118  18.854  0.00  0.00    +0.000 C 
ATOM     68  OD2 ASP A  10     -10.691  -2.993  19.384  0.00  0.00    +0.000 OA
ATOM     69  OD1 ASP A  10      -9.473  -4.583  18.492  0.00  0.00    +0.000 OA
ENDBRANCH  66  67
ENDBRANCH  63  66
ENDBRANCH  61  63
ENDBRANCH  57  59
ENDBRANCH  55  57
ENDBRANCH  52  53
BRANCH  52  70
ATOM     70  CB  SER A   8     -18.117  -8.675  19.995  0.00  0.00    +0.000 C 
BRANCH  70  71
ATOM     71  OG  SER A   8     -18.114  -9.539  18.877  0.00  0.00    +0.000 OA
ATOM     72  H   SER A   8     -18.180  -9.003  18.047  0.00  0.00    +0.000 HD
ENDBRANCH  70  71
ENDBRANCH  52  70
ENDBRANCH  50  52
ENDBRANCH  47  48
BRANCH  47  73
ATOM     73  CB  LEU A   7     -17.394  -3.931  17.664  0.00  0.00    +0.000 C 
BRANCH  73  74
ATOM     74  CG  LEU A   7     -17.375  -3.078  18.936  0.00  0.00    +0.000 C 
ATOM     75  CD2 LEU A   7     -18.686  -2.318  19.045  0.00  0.00    +0.000 C 
ATOM     76  CD1 LEU A   7     -16.183  -2.116  18.963  0.00  0.00    +0.000 C 
ENDBRANCH  73  74
ENDBRANCH  47  73
ENDBRANCH  45  47
ENDBRANCH   1  43
BRANCH   1  77
ATOM     77  C   UNK A   6     -15.280  -6.447  13.402  0.00  0.00    +0.000 C 
BRANCH  77  78
ATOM     78  C   UNK A   6     -14.687  -7.255  12.239  0.00  0.00    +0.000 C 
ATOM     79  O   UNK A   6     -13.839  -8.125  12.491  0.00  0.00    +0.000 OA
BRANCH  78  80
ATOM     80  O   UNK A   6     -15.038  -7.004  11.058  0.00  0.00    +0.000 OA
BRANCH  80  81
ATOM     81 CO   UNK A   6     -16.635  -5.967   9.872  0.00  0.00    +0.000 Co
ATOM     82  O   UNK A   6     -15.439  -5.242   8.099  0.00  0.00    +0.000 OA
BRANCH  81  83
ATOM     83  O   UNK A   3     -16.218  -4.099  10.678  0.00  0.00    +0.000 OA
BRANCH  83  84
ATOM     84  C   UNK A   3     -15.324  -3.220  10.563  0.00  0.00    +0.000 C 
ATOM     85  O   UNK A   3     -14.563  -3.126   9.558  0.00  0.00    +0.000 OA
BRANCH  84  86
ATOM     86  C   UNK A   3     -15.196  -2.192  11.693  0.00  0.00    +0.000 C 
BRANCH  86  87
ATOM     87  C   UNK A   3     -14.695  -2.774  12.991  0.00  0.00    +0.000 C 
BRANCH  87  88
ATOM     88  C   UNK A   3     -15.073  -1.936  14.220  0.00  0.00    +0.000 C 
BRANCH  88  91
ATOM     89  C   ILE A   2     -16.310   0.091  13.619  0.00  0.00    +0.000 C 
ATOM     90  O   ILE A   2     -17.413  -0.430  13.855  0.00  0.00    +0.000 OA
ATOM     91  N   UNK A   3     -15.149  -0.526  13.834  0.00  0.00    +0.000 N 
ATOM     92  H   UNK A   3     -14.266   0.013  13.724  0.00  0.00    +0.000 HD
BRANCH  89  93
ATOM     93  CA  ILE A   2     -16.213   1.468  12.968  0.00  0.00    +0.000 C 
BRANCH  93  95
ATOM     94  C   PHE A   1     -16.460   1.435  10.525  0.00  0.00    +0.000 C 
ATOM     95  N   ILE A   2     -17.010   1.416  11.732  0.00  0.00    +0.000 N 
ATOM     96  H   ILE A   2     -18.046   1.362  11.808  0.00  0.00    +0.000 HD
ATOM     97  O   PHE A   1     -15.252   1.603  10.324  0.00  0.00    +0.000 OA
BRANCH  94  98
ATOM     98  CA  PHE A   1     -17.415   1.190   9.370  0.00  0.00    +0.000 C 
BRANCH  98  99
ATOM     99  N   PHE A   1     -17.272   2.186   8.328  0.00  0.00    +0.000 NA
ATOM    100  H   PHE A   1     -16.565   2.037   7.580  0.00  0.00    +0.000 HD
ENDBRANCH  98  99
BRANCH  98 101
ATOM    101  CB  PHE A   1     -17.101  -0.211   8.862  0.00  0.00    +0.000 C 
BRANCH 101 102
ATOM    102  CG  PHE A   1     -18.020  -0.733   7.816  0.00  0.00    +0.000 C 
BRANCH 102 103
ATOM    103  CD  PHE A   1     -17.855  -2.232   7.604  0.00  0.00    +0.000 C 
ATOM    104  NE2 PHE A   1     -17.718  -2.982   8.689  0.00  0.00    +0.000 N 
ATOM    105 HE21 PHE A   1     -17.708  -2.539   9.630  0.00  0.00    +0.000 HD
ATOM    106 HE22 PHE A   1     -17.621  -4.014   8.599  0.00  0.00    +0.000 HD
ATOM    107  OE1 PHE A   1     -17.873  -2.703   6.477  0.00  0.00    +0.000 OA
ENDBRANCH 102 103
ENDBRANCH 101 102
ENDBRANCH  98 101
ENDBRANCH  94  98
ENDBRANCH  93  95
BRANCH  93 108
ATOM    108  CB  ILE A   2     -16.660   2.595  13.935  0.00  0.00    +0.000 C 
ATOM    109  CG2 ILE A   2     -16.528   3.963  13.261  0.00  0.00    +0.000 C 
BRANCH 108 110
ATOM    110  CG1 ILE A   2     -18.068   2.354  14.433  0.00  0.00    +0.000 C 
ATOM    111  CD1 ILE A   2     -18.531   3.379  15.460  0.00  0.00    +0.000 C 
ENDBRANCH 108 110
ENDBRANCH  93 108
ENDBRANCH  89  93
ENDBRANCH  88  91
BRANCH  88 112
ATOM    112  C   UNK A   3     -14.063  -2.233  15.339  0.00  0.00    +0.000 C 
ATOM    113  O   UNK A   3     -13.791  -3.389  15.630  0.00  0.00    +0.000 OA
ENDBRANCH  88 112
ENDBRANCH  87  88
ENDBRANCH  86  87
ENDBRANCH  84  86
ENDBRANCH  83  84
ENDBRANCH  81  83
ENDBRANCH  80  81
ENDBRANCH  78  80
ENDBRANCH  77  78
ENDBRANCH   1  77
TORSDOF 49
REMARK  Name = ../refined-set-2016/4b5t/4b5t_pocket.pdb
REMARK  127 active torsions:
REMARK  status: ('A' for Active; 'I' for Inactive)
REMARK    1  A    between atoms: _1  and  _3
REMARK    2  A    between atoms: _3  and  _4
REMARK    3  A    between atoms: _3  and  _6
REMARK    4  A    between atoms: _6  and  _7
REMARK    5  A    between atoms: _17  and  _19
REMARK    6  A    between atoms: _19  and  _20
REMARK    7  A    between atoms: _19  and  _22
REMARK    8  A    between atoms: _22  and  _23
REMARK    9  A    between atoms: _33  and  _35
REMARK   10  A    between atoms: _35  and  _36
REMARK   11  A    between atoms: _35  and  _38
REMARK   12  A    between atoms: _38  and  _39
REMARK   13  A    between atoms: _42  and  _44
REMARK   14  A    between atoms: _44  and  _45
REMARK   15  A    between atoms: _44  and  _47
REMARK   16  A    between atoms: _47  and  _48
REMARK   17  A    between atoms: _51  and  _53
REMARK   18  A    between atoms: _53  and  _54
REMARK   19  A    between atoms: _53  and  _56
REMARK   20  A    between atoms: _56  and  _57
REMARK   21  A    between atoms: _57  and  _58
REMARK   22  A    between atoms: _61  and  _63
REMARK   23  A    between atoms: _63  and  _64
REMARK   24  A    between atoms: _63  and  _66
REMARK   25  A    between atoms: _66  and  _67
REMARK   26  A    between atoms: _72  and  _74
REMARK   27  A    between atoms: _74  and  _75
REMARK   28  A    between atoms: _74  and  _77
REMARK   29  A    between atoms: _77  and  _78
REMARK   30  A    between atoms: _78  and  _79
REMARK   31  A    between atoms: _79  and  _80
REMARK   32  A    between atoms: _89  and  _91
REMARK   33  A    between atoms: _91  and  _92
REMARK   34  A    between atoms: _91  and  _94
REMARK   35  A    between atoms: _94  and  _95
REMARK   36  A    between atoms: _99  and  _100
REMARK   37  A    between atoms: _105  and  _107
REMARK   38  A    between atoms: _107  and  _108
REMARK   39  A    between atoms: _107  and  _110
REMARK   40  A    between atoms: _110  and  _111
REMARK   41  A    between atoms: _111  and  _112
REMARK   42  A    between atoms: _114  and  _116
REMARK   43  A    between atoms: _116  and  _117
REMARK   44  A    between atoms: _116  and  _119
REMARK   45  A    between atoms: _119  and  _120
REMARK   46  A    between atoms: _120  and  _121
REMARK   47  A    between atoms: _126  and  _128
REMARK   48  A    between atoms: _128  and  _129
REMARK   49  A    between atoms: _128  and  _131
REMARK   50  A    between atoms: _131  and  _132
REMARK   51  A    between atoms: _135  and  _137
REMARK   52  A    between atoms: _137  and  _138
REMARK   53  A    between atoms: _137  and  _140
REMARK   54  A    between atoms: _140  and  _141
REMARK   55  A    between atoms: _141  and  _142
REMARK   56  A    between atoms: _142  and  _143
REMARK   57  A    between atoms: _143  and  CO_319
REMARK   58  A    between atoms: _145  and  _147
REMARK   59  A    between atoms: _147  and  _148
REMARK   60  A    between atoms: _147  and  _150
REMARK   61  A    between atoms: _150  and  _151
REMARK   62  A    between atoms: _157  and  _159
REMARK   63  A    between atoms: _159  and  _160
REMARK   64  A    between atoms: _159  and  _162
REMARK   65  A    between atoms: _162  and  _163
REMARK   66  A    between atoms: _166  and  _168
REMARK   67  A    between atoms: _168  and  _169
REMARK   68  A    between atoms: _172  and  _173
REMARK   69  A    between atoms: _178  and  _180
REMARK   70  A    between atoms: _180  and  _181
REMARK   71  A    between atoms: _184  and  _186
REMARK   72  A    between atoms: _186  and  _187
REMARK   73  A    between atoms: _186  and  _189
REMARK   74  A    between atoms: _189  and  _190
REMARK   75  A    between atoms: _190  and  _192
REMARK   76  A    between atoms: _192  and  CO_319
REMARK   77  A    between atoms: _193  and  _195
REMARK   78  A    between atoms: _195  and  _196
REMARK   79  A    between atoms: _195  and  _198
REMARK   80  A    between atoms: _198  and  _199
REMARK   81  A    between atoms: _202  and  _204
REMARK   82  A    between atoms: _204  and  _205
REMARK   83  A    between atoms: _204  and  _207
REMARK   84  A    between atoms: _207  and  _208
REMARK   85  A    between atoms: _210  and  _212
REMARK   86  A    between atoms: _212  and  _213
REMARK   87  A    between atoms: _216  and  _218
REMARK   88  A    between atoms: _218  and  _219
REMARK   89  A    between atoms: _218  and  _221
REMARK   90  A    between atoms: _221  and  _222
REMARK   91  A    between atoms: _225  and  _227
REMARK   92  A    between atoms: _227  and  _228
REMARK   93  A    between atoms: _231  and  _232
REMARK   94  A    between atoms: _237  and  _239
REMARK   95  A    between atoms: _239  and  _240
REMARK   96  A    between atoms: _239  and  _242
REMARK   97  A    between atoms: _242  and  _243
REMARK   98  A    between atoms: _246  and  _248
REMARK   99  A    between atoms: _248  and  _249
REMARK  100  A    between atoms: _248  and  _251
REMARK  101  A    between atoms: _251  and  _252
REMARK  102  A    between atoms: _255  and  _257
REMARK  103  A    between atoms: _257  and  _258
REMARK  104  A    between atoms: _257  and  _260
REMARK  105  A    between atoms: _260  and  _261
REMARK  106  A    between atoms: _264  and  _266
REMARK  107  A    between atoms: _266  and  _267
REMARK  108  A    between atoms: _270  and  _272
REMARK  109  A    between atoms: _272  and  _273
REMARK  110  A    between atoms: _276  and  _278
REMARK  111  A    between atoms: _278  and  _279
REMARK  112  A    between atoms: _278  and  _281
REMARK  113  A    between atoms: _284  and  _286
REMARK  114  A    between atoms: _286  and  _287
REMARK  115  A    between atoms: _289  and  _291
REMARK  116  A    between atoms: _291  and  _292
REMARK  117  A    between atoms: _291  and  _294
REMARK  118  A    between atoms: _297  and  _299
REMARK  119  A    between atoms: _299  and  _300
REMARK  120  A    between atoms: _302  and  _304
REMARK  121  A    between atoms: _304  and  _305
REMARK  122  A    between atoms: _304  and  _307
REMARK  123  A    between atoms: _307  and  _308
REMARK  124  A    between atoms: _310  and  _312
REMARK  125  A    between atoms: _312  and  _313
REMARK  126  A    between atoms: _312  and  _315
REMARK  127  A    between atoms: _315  and  _316
REMARK                            x       y       z     vdW  Elec       q    Type
REMARK                         _______ _______ _______ _____ _____    ______ ____
ROOT
ATOM      1  CA  GLY A   1     -17.247 -12.123  17.828  0.00  0.00    +0.156 C 
ENDROOT
BRANCH   1   2
ATOM      2  N   GLY A   1     -16.325 -12.160  18.938  0.00  0.00    -0.238 NA
ATOM      3  H   GLY A   1     -16.018 -11.273  19.386  0.00  0.00    +0.142 HD
ENDBRANCH   1   2
BRANCH   1   4
ATOM      4  C   GLY A   1     -18.658 -12.410  18.210  0.00  0.00    +0.226 C 
ATOM      5  O   GLY A   1     -19.507 -12.438  17.352  0.00  0.00    -0.287 OA
ENDBRANCH   1   4
TORSDOF 2
REMARK  Name = ../refined-set-2016/4b5t/4b5t_pocket.pdb
REMARK  127 active torsions:
REMARK  status: ('A' for Active; 'I' for Inactive)
REMARK    1  A    between atoms: _1  and  _3
REMARK    2  A    between atoms: _3  and  _4
REMARK    3  A    between atoms: _3  and  _6
REMARK    4  A    between atoms: _6  and  _7
REMARK    5  A    between atoms: _17  and  _19
REMARK    6  A    between atoms: _19  and  _20
REMARK    7  A    between atoms: _19  and  _22
REMARK    8  A    between atoms: _22  and  _23
REMARK    9  A    between atoms: _33  and  _35
REMARK   10  A    between atoms: _35  and  _36
REMARK   11  A    between atoms: _35  and  _38
REMARK   12  A    between atoms: _38  and  _39
REMARK   13  A    between atoms: _42  and  _44
REMARK   14  A    between atoms: _44  and  _45
REMARK   15  A    between atoms: _44  and  _47
REMARK   16  A    between atoms: _47  and  _48
REMARK   17  A    between atoms: _51  and  _53
REMARK   18  A    between atoms: _53  and  _54
REMARK   19  A    between atoms: _53  and  _56
REMARK   20  A    between atoms: _56  and  _57
REMARK   21  A    between atoms: _57  and  _58
REMARK   22  A    between atoms: _61  and  _63
REMARK   23  A    between atoms: _63  and  _64
REMARK   24  A    between atoms: _63  and  _66
REMARK   25  A    between atoms: _66  and  _67
REMARK   26  A    between atoms: _72  and  _74
REMARK   27  A    between atoms: _74  and  _75
REMARK   28  A    between atoms: _74  and  _77
REMARK   29  A    between atoms: _77  and  _78
REMARK   30  A    between atoms: _78  and  _79
REMARK   31  A    between atoms: _79  and  _80
REMARK   32  A    between atoms: _89  and  _91
REMARK   33  A    between atoms: _91  and  _92
REMARK   34  A    between atoms: _91  and  _94
REMARK   35  A    between atoms: _94  and  _95
REMARK   36  A    between atoms: _99  and  _100
REMARK   37  A    between atoms: _105  and  _107
REMARK   38  A    between atoms: _107  and  _108
REMARK   39  A    between atoms: _107  and  _110
REMARK   40  A    between atoms: _110  and  _111
REMARK   41  A    between atoms: _111  and  _112
REMARK   42  A    between atoms: _114  and  _116
REMARK   43  A    between atoms: _116  and  _117
REMARK   44  A    between atoms: _116  and  _119
REMARK   45  A    between atoms: _119  and  _120
REMARK   46  A    between atoms: _120  and  _121
REMARK   47  A    between atoms: _126  and  _128
REMARK   48  A    between atoms: _128  and  _129
REMARK   49  A    between atoms: _128  and  _131
REMARK   50  A    between atoms: _131  and  _132
REMARK   51  A    between atoms: _135  and  _137
REMARK   52  A    between atoms: _137  and  _138
REMARK   53  A    between atoms: _137  and  _140
REMARK   54  A    between atoms: _140  and  _141
REMARK   55  A    between atoms: _141  and  _142
REMARK   56  A    between atoms: _142  and  _143
REMARK   57  A    between atoms: _143  and  CO_319
REMARK   58  A    between atoms: _145  and  _147
REMARK   59  A    between atoms: _147  and  _148
REMARK   60  A    between atoms: _147  and  _150
REMARK   61  A    between atoms: _150  and  _151
REMARK   62  A    between atoms: _157  and  _159
REMARK   63  A    between atoms: _159  and  _160
REMARK   64  A    between atoms: _159  and  _162
REMARK   65  A    between atoms: _162  and  _163
REMARK   66  A    between atoms: _166  and  _168
REMARK   67  A    between atoms: _168  and  _169
REMARK   68  A    between atoms: _172  and  _173
REMARK   69  A    between atoms: _178  and  _180
REMARK   70  A    between atoms: _180  and  _181
REMARK   71  A    between atoms: _184  and  _186
REMARK   72  A    between atoms: _186  and  _187
REMARK   73  A    between atoms: _186  and  _189
REMARK   74  A    between atoms: _189  and  _190
REMARK   75  A    between atoms: _190  and  _192
REMARK   76  A    between atoms: _192  and  CO_319
REMARK   77  A    between atoms: _193  and  _195
REMARK   78  A    between atoms: _195  and  _196
REMARK   79  A    between atoms: _195  and  _198
REMARK   80  A    between atoms: _198  and  _199
REMARK   81  A    between atoms: _202  and  _204
REMARK   82  A    between atoms: _204  and  _205
REMARK   83  A    between atoms: _204  and  _207
REMARK   84  A    between atoms: _207  and  _208
REMARK   85  A    between atoms: _210  and  _212
REMARK   86  A    between atoms: _212  and  _213
REMARK   87  A    between atoms: _216  and  _218
REMARK   88  A    between atoms: _218  and  _219
REMARK   89  A    between atoms: _218  and  _221
REMARK   90  A    between atoms: _221  and  _222
REMARK   91  A    between atoms: _225  and  _227
REMARK   92  A    between atoms: _227  and  _228
REMARK   93  A    between atoms: _231  and  _232
REMARK   94  A    between atoms: _237  and  _239
REMARK   95  A    between atoms: _239  and  _240
REMARK   96  A    between atoms: _239  and  _242
REMARK   97  A    between atoms: _242  and  _243
REMARK   98  A    between atoms: _246  and  _248
REMARK   99  A    between atoms: _248  and  _249
REMARK  100  A    between atoms: _248  and  _251
REMARK  101  A    between atoms: _251  and  _252
REMARK  102  A    between atoms: _255  and  _257
REMARK  103  A    between atoms: _257  and  _258
REMARK  104  A    between atoms: _257  and  _260
REMARK  105  A    between atoms: _260  and  _261
REMARK  106  A    between atoms: _264  and  _266
REMARK  107  A    between atoms: _266  and  _267
REMARK  108  A    between atoms: _270  and  _272
REMARK  109  A    between atoms: _272  and  _273
REMARK  110  A    between atoms: _276  and  _278
REMARK  111  A    between atoms: _278  and  _279
REMARK  112  A    between atoms: _278  and  _281
REMARK  113  A    between atoms: _284  and  _286
REMARK  114  A    between atoms: _286  and  _287
REMARK  115  A    between atoms: _289  and  _291
REMARK  116  A    between atoms: _291  and  _292
REMARK  117  A    between atoms: _291  and  _294
REMARK  118  A    between atoms: _297  and  _299
REMARK  119  A    between atoms: _299  and  _300
REMARK  120  A    between atoms: _302  and  _304
REMARK  121  A    between atoms: _304  and  _305
REMARK  122  A    between atoms: _304  and  _307
REMARK  123  A    between atoms: _307  and  _308
REMARK  124  A    between atoms: _310  and  _312
REMARK  125  A    between atoms: _312  and  _313
REMARK  126  A    between atoms: _312  and  _315
REMARK  127  A    between atoms: _315  and  _316
REMARK                            x       y       z     vdW  Elec       q    Type
REMARK                         _______ _______ _______ _____ _____    ______ ____
ROOT
ATOM      1  N   PRO A   1     -21.496 -10.670  20.013  0.00  0.00    -0.212 NA
ATOM      2  CA  PRO A   1     -21.909  -9.344  20.481  0.00  0.00    +0.137 C 
ATOM      3  CB  PRO A   1     -22.571  -8.714  19.243  0.00  0.00    +0.027 C 
ATOM      4  CG  PRO A   1     -22.411  -9.697  18.139  0.00  0.00    +0.021 C 
ATOM      5  CD  PRO A   1     -22.175 -11.020  18.759  0.00  0.00    +0.089 C 
ENDROOT
BRANCH   2   6
ATOM      6  C   PRO A   1     -22.911  -9.358  21.632  0.00  0.00    +0.224 C 
ATOM      7  O   PRO A   1     -23.250  -8.279  22.136  0.00  0.00    -0.287 OA
ENDBRANCH   2   6
TORSDOF 1
REMARK  Name = ../refined-set-2016/4b5t/4b5t_pocket.pdb
REMARK  127 active torsions:
REMARK  status: ('A' for Active; 'I' for Inactive)
REMARK    1  A    between atoms: _1  and  _3
REMARK    2  A    between atoms: _3  and  _4
REMARK    3  A    between atoms: _3  and  _6
REMARK    4  A    between atoms: _6  and  _7
REMARK    5  A    between atoms: _17  and  _19
REMARK    6  A    between atoms: _19  and  _20
REMARK    7  A    between atoms: _19  and  _22
REMARK    8  A    between atoms: _22  and  _23
REMARK    9  A    between atoms: _33  and  _35
REMARK   10  A    between atoms: _35  and  _36
REMARK   11  A    between atoms: _35  and  _38
REMARK   12  A    between atoms: _38  and  _39
REMARK   13  A    between atoms: _42  and  _44
REMARK   14  A    between atoms: _44  and  _45
REMARK   15  A    between atoms: _44  and  _47
REMARK   16  A    between atoms: _47  and  _48
REMARK   17  A    between atoms: _51  and  _53
REMARK   18  A    between atoms: _53  and  _54
REMARK   19  A    between atoms: _53  and  _56
REMARK   20  A    between atoms: _56  and  _57
REMARK   21  A    between atoms: _57  and  _58
REMARK   22  A    between atoms: _61  and  _63
REMARK   23  A    between atoms: _63  and  _64
REMARK   24  A    between atoms: _63  and  _66
REMARK   25  A    between atoms: _66  and  _67
REMARK   26  A    between atoms: _72  and  _74
REMARK   27  A    between atoms: _74  and  _75
REMARK   28  A    between atoms: _74  and  _77
REMARK   29  A    between atoms: _77  and  _78
REMARK   30  A    between atoms: _78  and  _79
REMARK   31  A    between atoms: _79  and  _80
REMARK   32  A    between atoms: _89  and  _91
REMARK   33  A    between atoms: _91  and  _92
REMARK   34  A    between atoms: _91  and  _94
REMARK   35  A    between atoms: _94  and  _95
REMARK   36  A    between atoms: _99  and  _100
REMARK   37  A    between atoms: _105  and  _107
REMARK   38  A    between atoms: _107  and  _108
REMARK   39  A    between atoms: _107  and  _110
REMARK   40  A    between atoms: _110  and  _111
REMARK   41  A    between atoms: _111  and  _112
REMARK   42  A    between atoms: _114  and  _116
REMARK   43  A    between atoms: _116  and  _117
REMARK   44  A    between atoms: _116  and  _119
REMARK   45  A    between atoms: _119  and  _120
REMARK   46  A    between atoms: _120  and  _121
REMARK   47  A    between atoms: _126  and  _128
REMARK   48  A    between atoms: _128  and  _129
REMARK   49  A    between atoms: _128  and  _131
REMARK   50  A    between atoms: _131  and  _132
REMARK   51  A    between atoms: _135  and  _137
REMARK   52  A    between atoms: _137  and  _138
REMARK   53  A    between atoms: _137  and  _140
REMARK   54  A    between atoms: _140  and  _141
REMARK   55  A    between atoms: _141  and  _142
REMARK   56  A    between atoms: _142  and  _143
REMARK   57  A    between atoms: _143  and  CO_319
REMARK   58  A    between atoms: _145  and  _147
REMARK   59  A    between atoms: _147  and  _148
REMARK   60  A    between atoms: _147  and  _150
REMARK   61  A    between atoms: _150  and  _151
REMARK   62  A    between atoms: _157  and  _159
REMARK   63  A    between atoms: _159  and  _160
REMARK   64  A    between atoms: _159  and  _162
REMARK   65  A    between atoms: _162  and  _163
REMARK   66  A    between atoms: _166  and  _168
REMARK   67  A    between atoms: _168  and  _169
REMARK   68  A    between atoms: _172  and  _173
REMARK   69  A    between atoms: _178  and  _180
REMARK   70  A    between atoms: _180  and  _181
REMARK   71  A    between atoms: _184  and  _186
REMARK   72  A    between atoms: _186  and  _187
REMARK   73  A    between atoms: _186  and  _189
REMARK   74  A    between atoms: _189  and  _190
REMARK   75  A    between atoms: _190  and  _192
REMARK   76  A    between atoms: _192  and  CO_319
REMARK   77  A    between atoms: _193  and  _195
REMARK   78  A    between atoms: _195  and  _196
REMARK   79  A    between atoms: _195  and  _198
REMARK   80  A    between atoms: _198  and  _199
REMARK   81  A    between atoms: _202  and  _204
REMARK   82  A    between atoms: _204  and  _205
REMARK   83  A    between atoms: _204  and  _207
REMARK   84  A    between atoms: _207  and  _208
REMARK   85  A    between atoms: _210  and  _212
REMARK   86  A    between atoms: _212  and  _213
REMARK   87  A    between atoms: _216  and  _218
REMARK   88  A    between atoms: _218  and  _219
REMARK   89  A    between atoms: _218  and  _221
REMARK   90  A    between atoms: _221  and  _222
REMARK   91  A    between atoms: _225  and  _227
REMARK   92  A    between atoms: _227  and  _228
REMARK   93  A    between atoms: _231  and  _232
REMARK   94  A    between atoms: _237  and  _239
REMARK   95  A    between atoms: _239  and  _240
REMARK   96  A    between atoms: _239  and  _242
REMARK   97  A    between atoms: _242  and  _243
REMARK   98  A    between atoms: _246  and  _248
REMARK   99  A    between atoms: _248  and  _249
REMARK  100  A    between atoms: _248  and  _251
REMARK  101  A    between atoms: _251  and  _252
REMARK  102  A    between atoms: _255  and  _257
REMARK  103  A    between atoms: _257  and  _258
REMARK  104  A    between atoms: _257  and  _260
REMARK  105  A    between atoms: _260  and  _261
REMARK  106  A    between atoms: _264  and  _266
REMARK  107  A    between atoms: _266  and  _267
REMARK  108  A    between atoms: _270  and  _272
REMARK  109  A    between atoms: _272  and  _273
REMARK  110  A    between atoms: _276  and  _278
REMARK  111  A    between atoms: _278  and  _279
REMARK  112  A    between atoms: _278  and  _281
REMARK  113  A    between atoms: _284  and  _286
REMARK  114  A    between atoms: _286  and  _287
REMARK  115  A    between atoms: _289  and  _291
REMARK  116  A    between atoms: _291  and  _292
REMARK  117  A    between atoms: _291  and  _294
REMARK  118  A    between atoms: _297  and  _299
REMARK  119  A    between atoms: _299  and  _300
REMARK  120  A    between atoms: _302  and  _304
REMARK  121  A    between atoms: _304  and  _305
REMARK  122  A    between atoms: _304  and  _307
REMARK  123  A    between atoms: _307  and  _308
REMARK  124  A    between atoms: _310  and  _312
REMARK  125  A    between atoms: _312  and  _313
REMARK  126  A    between atoms: _312  and  _315
REMARK  127  A    between atoms: _315  and  _316
REMARK                            x       y       z     vdW  Elec       q    Type
REMARK                         _______ _______ _______ _____ _____    ______ ____
ROOT
ATOM      1  C   LEU A   2     -26.224  -6.444  11.620  0.00  0.00    +0.241 C 
ATOM      2  O   LEU A   2     -25.342  -6.659  12.455  0.00  0.00    -0.273 OA
ATOM      3  N   ILE A   3     -27.414  -7.008  11.669  0.00  0.00    -0.297 N 
ATOM      4  H   ILE A   3     -28.102  -6.837  10.908  0.00  0.00    +0.150 HD
ENDROOT
BRANCH   1   5
ATOM      5  CA  LEU A   2     -25.955  -5.571  10.420  0.00  0.00    +0.149 C 
BRANCH   5   7
ATOM      6  C   ILE A   1     -26.183  -3.158  10.772  0.00  0.00    +0.238 C 
ATOM      7  N   LEU A   2     -25.479  -4.279  10.874  0.00  0.00    -0.297 N 
ATOM      8  H   LEU A   2     -24.533  -4.227  11.304  0.00  0.00    +0.150 HD
ATOM      9  O   ILE A   1     -27.187  -3.058  10.090  0.00  0.00    -0.274 OA
BRANCH   6  10
ATOM     10  CA  ILE A   1     -25.639  -1.965  11.531  0.00  0.00    +0.145 C 
BRANCH  10  11
ATOM     11  N   ILE A   1     -26.070  -0.739  10.916  0.00  0.00    -0.238 NA
ATOM     12  H   ILE A   1     -26.842  -0.776  10.220  0.00  0.00    +0.142 HD
ENDBRANCH  10  11
BRANCH  10  13
ATOM     13  CB  ILE A   1     -26.113  -2.000  13.032  0.00  0.00    +0.025 C 
ATOM     14  CG2 ILE A   1     -27.633  -2.064  13.094  0.00  0.00    +0.002 C 
BRANCH  13  15
ATOM     15  CG1 ILE A   1     -25.462  -3.131  13.798  0.00  0.00    +0.002 C 
ATOM     16  CD1 ILE A   1     -25.420  -2.883  15.362  0.00  0.00    +0.000 C 
ENDBRANCH  13  15
ENDBRANCH  10  13
ENDBRANCH   6  10
ENDBRANCH   5   7
BRANCH   5  17
ATOM     17  CB  LEU A   2     -24.910  -6.277   9.559  0.00  0.00    +0.029 C 
BRANCH  17  18
ATOM     18  CG  LEU A   2     -25.113  -7.768   9.328  0.00  0.00    +0.002 C 
ATOM     19  CD2 LEU A   2     -23.893  -8.395   8.670  0.00  0.00    +0.000 C 
ATOM     20  CD1 LEU A   2     -26.376  -8.024   8.513  0.00  0.00    +0.000 C 
ENDBRANCH  17  18
ENDBRANCH   5  17
ENDBRANCH   1   5
BRANCH   3  21
ATOM     21  CA  ILE A   3     -27.769  -7.879  12.798  0.00  0.00    +0.149 C 
BRANCH  21  22
ATOM     22  C   ILE A   3     -28.832  -8.875  12.376  0.00  0.00    +0.241 C 
ATOM     23  N   ALA A   4     -28.527 -10.158  12.526  0.00  0.00    -0.298 N 
ATOM     24  H   ALA A   4     -27.613 -10.408  12.954  0.00  0.00    +0.150 HD
ATOM     25  O   ILE A   3     -29.893  -8.485  11.921  0.00  0.00    -0.273 OA
BRANCH  23  26
ATOM     26  CA  ALA A   4     -29.435 -11.241  12.109  0.00  0.00    +0.137 C 
ATOM     27  CB  ALA A   4     -28.648 -12.491  11.812  0.00  0.00    +0.030 C 
BRANCH  26  28
ATOM     28  C   ALA A   4     -30.537 -11.560  13.138  0.00  0.00    +0.227 C 
ATOM     29  O   ALA A   4     -31.566 -12.132  12.786  0.00  0.00    -0.286 OA
ENDBRANCH  26  28
ENDBRANCH  23  26
ENDBRANCH  21  22
BRANCH  21  30
ATOM     30  CB  ILE A   3     -28.241  -7.021  14.026  0.00  0.00    +0.027 C 
ATOM     31  CG2 ILE A   3     -29.330  -6.052  13.645  0.00  0.00    +0.002 C 
BRANCH  30  32
ATOM     32  CG1 ILE A   3     -28.677  -7.914  15.173  0.00  0.00    +0.002 C 
ATOM     33  CD1 ILE A   3     -27.503  -8.556  15.817  0.00  0.00    +0.000 C 
ENDBRANCH  30  32
ENDBRANCH  21  30
ENDBRANCH   3  21
TORSDOF 14
REMARK  Name = ../refined-set-2016/4b5t/4b5t_pocket.pdb
REMARK  127 active torsions:
REMARK  status: ('A' for Active; 'I' for Inactive)
REMARK    1  A    between atoms: _1  and  _3
REMARK    2  A    between atoms: _3  and  _4
REMARK    3  A    between atoms: _3  and  _6
REMARK    4  A    between atoms: _6  and  _7
REMARK    5  A    between atoms: _17  and  _19
REMARK    6  A    between atoms: _19  and  _20
REMARK    7  A    between atoms: _19  and  _22
REMARK    8  A    between atoms: _22  and  _23
REMARK    9  A    between atoms: _33  and  _35
REMARK   10  A    between atoms: _35  and  _36
REMARK   11  A    between atoms: _35  and  _38
REMARK   12  A    between atoms: _38  and  _39
REMARK   13  A    between atoms: _42  and  _44
REMARK   14  A    between atoms: _44  and  _45
REMARK   15  A    between atoms: _44  and  _47
REMARK   16  A    between atoms: _47  and  _48
REMARK   17  A    between atoms: _51  and  _53
REMARK   18  A    between atoms: _53  and  _54
REMARK   19  A    between atoms: _53  and  _56
REMARK   20  A    between atoms: _56  and  _57
REMARK   21  A    between atoms: _57  and  _58
REMARK   22  A    between atoms: _61  and  _63
REMARK   23  A    between atoms: _63  and  _64
REMARK   24  A    between atoms: _63  and  _66
REMARK   25  A    between atoms: _66  and  _67
REMARK   26  A    between atoms: _72  and  _74
REMARK   27  A    between atoms: _74  and  _75
REMARK   28  A    between atoms: _74  and  _77
REMARK   29  A    between atoms: _77  and  _78
REMARK   30  A    between atoms: _78  and  _79
REMARK   31  A    between atoms: _79  and  _80
REMARK   32  A    between atoms: _89  and  _91
REMARK   33  A    between atoms: _91  and  _92
REMARK   34  A    between atoms: _91  and  _94
REMARK   35  A    between atoms: _94  and  _95
REMARK   36  A    between atoms: _99  and  _100
REMARK   37  A    between atoms: _105  and  _107
REMARK   38  A    between atoms: _107  and  _108
REMARK   39  A    between atoms: _107  and  _110
REMARK   40  A    between atoms: _110  and  _111
REMARK   41  A    between atoms: _111  and  _112
REMARK   42  A    between atoms: _114  and  _116
REMARK   43  A    between atoms: _116  and  _117
REMARK   44  A    between atoms: _116  and  _119
REMARK   45  A    between atoms: _119  and  _120
REMARK   46  A    between atoms: _120  and  _121
REMARK   47  A    between atoms: _126  and  _128
REMARK   48  A    between atoms: _128  and  _129
REMARK   49  A    between atoms: _128  and  _131
REMARK   50  A    between atoms: _131  and  _132
REMARK   51  A    between atoms: _135  and  _137
REMARK   52  A    between atoms: _137  and  _138
REMARK   53  A    between atoms: _137  and  _140
REMARK   54  A    between atoms: _140  and  _141
REMARK   55  A    between atoms: _141  and  _142
REMARK   56  A    between atoms: _142  and  _143
REMARK   57  A    between atoms: _143  and  CO_319
REMARK   58  A    between atoms: _145  and  _147
REMARK   59  A    between atoms: _147  and  _148
REMARK   60  A    between atoms: _147  and  _150
REMARK   61  A    between atoms: _150  and  _151
REMARK   62  A    between atoms: _157  and  _159
REMARK   63  A    between atoms: _159  and  _160
REMARK   64  A    between atoms: _159  and  _162
REMARK   65  A    between atoms: _162  and  _163
REMARK   66  A    between atoms: _166  and  _168
REMARK   67  A    between atoms: _168  and  _169
REMARK   68  A    between atoms: _172  and  _173
REMARK   69  A    between atoms: _178  and  _180
REMARK   70  A    between atoms: _180  and  _181
REMARK   71  A    between atoms: _184  and  _186
REMARK   72  A    between atoms: _186  and  _187
REMARK   73  A    between atoms: _186  and  _189
REMARK   74  A    between atoms: _189  and  _190
REMARK   75  A    between atoms: _190  and  _192
REMARK   76  A    between atoms: _192  and  CO_319
REMARK   77  A    between atoms: _193  and  _195
REMARK   78  A    between atoms: _195  and  _196
REMARK   79  A    between atoms: _195  and  _198
REMARK   80  A    between atoms: _198  and  _199
REMARK   81  A    between atoms: _202  and  _204
REMARK   82  A    between atoms: _204  and  _205
REMARK   83  A    between atoms: _204  and  _207
REMARK   84  A    between atoms: _207  and  _208
REMARK   85  A    between atoms: _210  and  _212
REMARK   86  A    between atoms: _212  and  _213
REMARK   87  A    between atoms: _216  and  _218
REMARK   88  A    between atoms: _218  and  _219
REMARK   89  A    between atoms: _218  and  _221
REMARK   90  A    between atoms: _221  and  _222
REMARK   91  A    between atoms: _225  and  _227
REMARK   92  A    between atoms: _227  and  _228
REMARK   93  A    between atoms: _231  and  _232
REMARK   94  A    between atoms: _237  and  _239
REMARK   95  A    between atoms: _239  and  _240
REMARK   96  A    between atoms: _239  and  _242
REMARK   97  A    between atoms: _242  and  _243
REMARK   98  A    between atoms: _246  and  _248
REMARK   99  A    between atoms: _248  and  _249
REMARK  100  A    between atoms: _248  and  _251
REMARK  101  A    between atoms: _251  and  _252
REMARK  102  A    between atoms: _255  and  _257
REMARK  103  A    between atoms: _257  and  _258
REMARK  104  A    between atoms: _257  and  _260
REMARK  105  A    between atoms: _260  and  _261
REMARK  106  A    between atoms: _264  and  _266
REMARK  107  A    between atoms: _266  and  _267
REMARK  108  A    between atoms: _270  and  _272
REMARK  109  A    between atoms: _272  and  _273
REMARK  110  A    between atoms: _276  and  _278
REMARK  111  A    between atoms: _278  and  _279
REMARK  112  A    between atoms: _278  and  _281
REMARK  113  A    between atoms: _284  and  _286
REMARK  114  A    between atoms: _286  and  _287
REMARK  115  A    between atoms: _289  and  _291
REMARK  116  A    between atoms: _291  and  _292
REMARK  117  A    between atoms: _291  and  _294
REMARK  118  A    between atoms: _297  and  _299
REMARK  119  A    between atoms: _299  and  _300
REMARK  120  A    between atoms: _302  and  _304
REMARK  121  A    between atoms: _304  and  _305
REMARK  122  A    between atoms: _304  and  _307
REMARK  123  A    between atoms: _307  and  _308
REMARK  124  A    between atoms: _310  and  _312
REMARK  125  A    between atoms: _312  and  _313
REMARK  126  A    between atoms: _312  and  _315
REMARK  127  A    between atoms: _315  and  _316
REMARK                            x       y       z     vdW  Elec       q    Type
REMARK                         _______ _______ _______ _____ _____    ______ ____
ROOT
ATOM      1  CA  ALA A   1     -29.335  -4.938   7.445  0.00  0.00    +0.133 C 
ATOM      2  CB  ALA A   1     -27.968  -5.291   6.791  0.00  0.00    +0.027 C 
ENDROOT
BRANCH   1   3
ATOM      3  N   ALA A   1     -29.240  -3.703   8.197  0.00  0.00    -0.239 NA
ATOM      4  H   ALA A   1     -28.339  -3.445   8.647  0.00  0.00    +0.142 HD
ENDBRANCH   1   3
BRANCH   1   5
ATOM      5  C   ALA A   1     -29.788  -6.020   8.398  0.00  0.00    +0.224 C 
ATOM      6  O   ALA A   1     -29.180  -6.222   9.438  0.00  0.00    -0.287 OA
ENDBRANCH   1   5
TORSDOF 2
REMARK  Name = ../refined-set-2016/4b5t/4b5t_pocket.pdb
REMARK  127 active torsions:
REMARK  status: ('A' for Active; 'I' for Inactive)
REMARK    1  A    between atoms: _1  and  _3
REMARK    2  A    between atoms: _3  and  _4
REMARK    3  A    between atoms: _3  and  _6
REMARK    4  A    between atoms: _6  and  _7
REMARK    5  A    between atoms: _17  and  _19
REMARK    6  A    between atoms: _19  and  _20
REMARK    7  A    between atoms: _19  and  _22
REMARK    8  A    between atoms: _22  and  _23
REMARK    9  A    between atoms: _33  and  _35
REMARK   10  A    between atoms: _35  and  _36
REMARK   11  A    between atoms: _35  and  _38
REMARK   12  A    between atoms: _38  and  _39
REMARK   13  A    between atoms: _42  and  _44
REMARK   14  A    between atoms: _44  and  _45
REMARK   15  A    between atoms: _44  and  _47
REMARK   16  A    between atoms: _47  and  _48
REMARK   17  A    between atoms: _51  and  _53
REMARK   18  A    between atoms: _53  and  _54
REMARK   19  A    between atoms: _53  and  _56
REMARK   20  A    between atoms: _56  and  _57
REMARK   21  A    between atoms: _57  and  _58
REMARK   22  A    between atoms: _61  and  _63
REMARK   23  A    between atoms: _63  and  _64
REMARK   24  A    between atoms: _63  and  _66
REMARK   25  A    between atoms: _66  and  _67
REMARK   26  A    between atoms: _72  and  _74
REMARK   27  A    between atoms: _74  and  _75
REMARK   28  A    between atoms: _74  and  _77
REMARK   29  A    between atoms: _77  and  _78
REMARK   30  A    between atoms: _78  and  _79
REMARK   31  A    between atoms: _79  and  _80
REMARK   32  A    between atoms: _89  and  _91
REMARK   33  A    between atoms: _91  and  _92
REMARK   34  A    between atoms: _91  and  _94
REMARK   35  A    between atoms: _94  and  _95
REMARK   36  A    between atoms: _99  and  _100
REMARK   37  A    between atoms: _105  and  _107
REMARK   38  A    between atoms: _107  and  _108
REMARK   39  A    between atoms: _107  and  _110
REMARK   40  A    between atoms: _110  and  _111
REMARK   41  A    between atoms: _111  and  _112
REMARK   42  A    between atoms: _114  and  _116
REMARK   43  A    between atoms: _116  and  _117
REMARK   44  A    between atoms: _116  and  _119
REMARK   45  A    between atoms: _119  and  _120
REMARK   46  A    between atoms: _120  and  _121
REMARK   47  A    between atoms: _126  and  _128
REMARK   48  A    between atoms: _128  and  _129
REMARK   49  A    between atoms: _128  and  _131
REMARK   50  A    between atoms: _131  and  _132
REMARK   51  A    between atoms: _135  and  _137
REMARK   52  A    between atoms: _137  and  _138
REMARK   53  A    between atoms: _137  and  _140
REMARK   54  A    between atoms: _140  and  _141
REMARK   55  A    between atoms: _141  and  _142
REMARK   56  A    between atoms: _142  and  _143
REMARK   57  A    between atoms: _143  and  CO_319
REMARK   58  A    between atoms: _145  and  _147
REMARK   59  A    between atoms: _147  and  _148
REMARK   60  A    between atoms: _147  and  _150
REMARK   61  A    between atoms: _150  and  _151
REMARK   62  A    between atoms: _157  and  _159
REMARK   63  A    between atoms: _159  and  _160
REMARK   64  A    between atoms: _159  and  _162
REMARK   65  A    between atoms: _162  and  _163
REMARK   66  A    between atoms: _166  and  _168
REMARK   67  A    between atoms: _168  and  _169
REMARK   68  A    between atoms: _172  and  _173
REMARK   69  A    between atoms: _178  and  _180
REMARK   70  A    between atoms: _180  and  _181
REMARK   71  A    between atoms: _184  and  _186
REMARK   72  A    between atoms: _186  and  _187
REMARK   73  A    between atoms: _186  and  _189
REMARK   74  A    between atoms: _189  and  _190
REMARK   75  A    between atoms: _190  and  _192
REMARK   76  A    between atoms: _192  and  CO_319
REMARK   77  A    between atoms: _193  and  _195
REMARK   78  A    between atoms: _195  and  _196
REMARK   79  A    between atoms: _195  and  _198
REMARK   80  A    between atoms: _198  and  _199
REMARK   81  A    between atoms: _202  and  _204
REMARK   82  A    between atoms: _204  and  _205
REMARK   83  A    between atoms: _204  and  _207
REMARK   84  A    between atoms: _207  and  _208
REMARK   85  A    between atoms: _210  and  _212
REMARK   86  A    between atoms: _212  and  _213
REMARK   87  A    between atoms: _216  and  _218
REMARK   88  A    between atoms: _218  and  _219
REMARK   89  A    between atoms: _218  and  _221
REMARK   90  A    between atoms: _221  and  _222
REMARK   91  A    between atoms: _225  and  _227
REMARK   92  A    between atoms: _227  and  _228
REMARK   93  A    between atoms: _231  and  _232
REMARK   94  A    between atoms: _237  and  _239
REMARK   95  A    between atoms: _239  and  _240
REMARK   96  A    between atoms: _239  and  _242
REMARK   97  A    between atoms: _242  and  _243
REMARK   98  A    between atoms: _246  and  _248
REMARK   99  A    between atoms: _248  and  _249
REMARK  100  A    between atoms: _248  and  _251
REMARK  101  A    between atoms: _251  and  _252
REMARK  102  A    between atoms: _255  and  _257
REMARK  103  A    between atoms: _257  and  _258
REMARK  104  A    between atoms: _257  and  _260
REMARK  105  A    between atoms: _260  and  _261
REMARK  106  A    between atoms: _264  and  _266
REMARK  107  A    between atoms: _266  and  _267
REMARK  108  A    between atoms: _270  and  _272
REMARK  109  A    between atoms: _272  and  _273
REMARK  110  A    between atoms: _276  and  _278
REMARK  111  A    between atoms: _278  and  _279
REMARK  112  A    between atoms: _278  and  _281
REMARK  113  A    between atoms: _284  and  _286
REMARK  114  A    between atoms: _286  and  _287
REMARK  115  A    between atoms: _289  and  _291
REMARK  116  A    between atoms: _291  and  _292
REMARK  117  A    between atoms: _291  and  _294
REMARK  118  A    between atoms: _297  and  _299
REMARK  119  A    between atoms: _299  and  _300
REMARK  120  A    between atoms: _302  and  _304
REMARK  121  A    between atoms: _304  and  _305
REMARK  122  A    between atoms: _304  and  _307
REMARK  123  A    between atoms: _307  and  _308
REMARK  124  A    between atoms: _310  and  _312
REMARK  125  A    between atoms: _312  and  _313
REMARK  126  A    between atoms: _312  and  _315
REMARK  127  A    between atoms: _315  and  _316
REMARK                            x       y       z     vdW  Elec       q    Type
REMARK                         _______ _______ _______ _____ _____    ______ ____
ROOT
ATOM      1  CA  VAL A   1     -27.584 -12.331   4.946  0.00  0.00    +0.133 C 
ENDROOT
BRANCH   1   2
ATOM      2  CB  VAL A   1     -26.282 -12.823   5.668  0.00  0.00    +0.023 C 
ATOM      3  CG2 VAL A   1     -25.799 -11.814   6.677  0.00  0.00    +0.002 C 
ATOM      4  CG1 VAL A   1     -25.127 -13.118   4.670  0.00  0.00    +0.002 C 
ENDBRANCH   1   2
BRANCH   1   5
ATOM      5  N   VAL A   1     -28.641 -12.046   5.916  0.00  0.00    -0.239 NA
ATOM      6  H   VAL A   1     -29.063 -12.850   6.423  0.00  0.00    +0.142 HD
ENDBRANCH   1   5
BRANCH   1   7
ATOM      7  C   VAL A   1     -28.093 -13.432   4.027  0.00  0.00    +0.224 C 
ATOM      8  O   VAL A   1     -28.642 -14.426   4.493  0.00  0.00    -0.287 OA
ENDBRANCH   1   7
TORSDOF 3
REMARK  Name = ../refined-set-2016/4b5t/4b5t_pocket.pdb
REMARK  127 active torsions:
REMARK  status: ('A' for Active; 'I' for Inactive)
REMARK    1  A    between atoms: _1  and  _3
REMARK    2  A    between atoms: _3  and  _4
REMARK    3  A    between atoms: _3  and  _6
REMARK    4  A    between atoms: _6  and  _7
REMARK    5  A    between atoms: _17  and  _19
REMARK    6  A    between atoms: _19  and  _20
REMARK    7  A    between atoms: _19  and  _22
REMARK    8  A    between atoms: _22  and  _23
REMARK    9  A    between atoms: _33  and  _35
REMARK   10  A    between atoms: _35  and  _36
REMARK   11  A    between atoms: _35  and  _38
REMARK   12  A    between atoms: _38  and  _39
REMARK   13  A    between atoms: _42  and  _44
REMARK   14  A    between atoms: _44  and  _45
REMARK   15  A    between atoms: _44  and  _47
REMARK   16  A    between atoms: _47  and  _48
REMARK   17  A    between atoms: _51  and  _53
REMARK   18  A    between atoms: _53  and  _54
REMARK   19  A    between atoms: _53  and  _56
REMARK   20  A    between atoms: _56  and  _57
REMARK   21  A    between atoms: _57  and  _58
REMARK   22  A    between atoms: _61  and  _63
REMARK   23  A    between atoms: _63  and  _64
REMARK   24  A    between atoms: _63  and  _66
REMARK   25  A    between atoms: _66  and  _67
REMARK   26  A    between atoms: _72  and  _74
REMARK   27  A    between atoms: _74  and  _75
REMARK   28  A    between atoms: _74  and  _77
REMARK   29  A    between atoms: _77  and  _78
REMARK   30  A    between atoms: _78  and  _79
REMARK   31  A    between atoms: _79  and  _80
REMARK   32  A    between atoms: _89  and  _91
REMARK   33  A    between atoms: _91  and  _92
REMARK   34  A    between atoms: _91  and  _94
REMARK   35  A    between atoms: _94  and  _95
REMARK   36  A    between atoms: _99  and  _100
REMARK   37  A    between atoms: _105  and  _107
REMARK   38  A    between atoms: _107  and  _108
REMARK   39  A    between atoms: _107  and  _110
REMARK   40  A    between atoms: _110  and  _111
REMARK   41  A    between atoms: _111  and  _112
REMARK   42  A    between atoms: _114  and  _116
REMARK   43  A    between atoms: _116  and  _117
REMARK   44  A    between atoms: _116  and  _119
REMARK   45  A    between atoms: _119  and  _120
REMARK   46  A    between atoms: _120  and  _121
REMARK   47  A    between atoms: _126  and  _128
REMARK   48  A    between atoms: _128  and  _129
REMARK   49  A    between atoms: _128  and  _131
REMARK   50  A    between atoms: _131  and  _132
REMARK   51  A    between atoms: _135  and  _137
REMARK   52  A    between atoms: _137  and  _138
REMARK   53  A    between atoms: _137  and  _140
REMARK   54  A    between atoms: _140  and  _141
REMARK   55  A    between atoms: _141  and  _142
REMARK   56  A    between atoms: _142  and  _143
REMARK   57  A    between atoms: _143  and  CO_319
REMARK   58  A    between atoms: _145  and  _147
REMARK   59  A    between atoms: _147  and  _148
REMARK   60  A    between atoms: _147  and  _150
REMARK   61  A    between atoms: _150  and  _151
REMARK   62  A    between atoms: _157  and  _159
REMARK   63  A    between atoms: _159  and  _160
REMARK   64  A    between atoms: _159  and  _162
REMARK   65  A    between atoms: _162  and  _163
REMARK   66  A    between atoms: _166  and  _168
REMARK   67  A    between atoms: _168  and  _169
REMARK   68  A    between atoms: _172  and  _173
REMARK   69  A    between atoms: _178  and  _180
REMARK   70  A    between atoms: _180  and  _181
REMARK   71  A    between atoms: _184  and  _186
REMARK   72  A    between atoms: _186  and  _187
REMARK   73  A    between atoms: _186  and  _189
REMARK   74  A    between atoms: _189  and  _190
REMARK   75  A    between atoms: _190  and  _192
REMARK   76  A    between atoms: _192  and  CO_319
REMARK   77  A    between atoms: _193  and  _195
REMARK   78  A    between atoms: _195  and  _196
REMARK   79  A    between atoms: _195  and  _198
REMARK   80  A    between atoms: _198  and  _199
REMARK   81  A    between atoms: _202  and  _204
REMARK   82  A    between atoms: _204  and  _205
REMARK   83  A    between atoms: _204  and  _207
REMARK   84  A    between atoms: _207  and  _208
REMARK   85  A    between atoms: _210  and  _212
REMARK   86  A    between atoms: _212  and  _213
REMARK   87  A    between atoms: _216  and  _218
REMARK   88  A    between atoms: _218  and  _219
REMARK   89  A    between atoms: _218  and  _221
REMARK   90  A    between atoms: _221  and  _222
REMARK   91  A    between atoms: _225  and  _227
REMARK   92  A    between atoms: _227  and  _228
REMARK   93  A    between atoms: _231  and  _232
REMARK   94  A    between atoms: _237  and  _239
REMARK   95  A    between atoms: _239  and  _240
REMARK   96  A    between atoms: _239  and  _242
REMARK   97  A    between atoms: _242  and  _243
REMARK   98  A    between atoms: _246  and  _248
REMARK   99  A    between atoms: _248  and  _249
REMARK  100  A    between atoms: _248  and  _251
REMARK  101  A    between atoms: _251  and  _252
REMARK  102  A    between atoms: _255  and  _257
REMARK  103  A    between atoms: _257  and  _258
REMARK  104  A    between atoms: _257  and  _260
REMARK  105  A    between atoms: _260  and  _261
REMARK  106  A    between atoms: _264  and  _266
REMARK  107  A    between atoms: _266  and  _267
REMARK  108  A    between atoms: _270  and  _272
REMARK  109  A    between atoms: _272  and  _273
REMARK  110  A    between atoms: _276  and  _278
REMARK  111  A    between atoms: _278  and  _279
REMARK  112  A    between atoms: _278  and  _281
REMARK  113  A    between atoms: _284  and  _286
REMARK  114  A    between atoms: _286  and  _287
REMARK  115  A    between atoms: _289  and  _291
REMARK  116  A    between atoms: _291  and  _292
REMARK  117  A    between atoms: _291  and  _294
REMARK  118  A    between atoms: _297  and  _299
REMARK  119  A    between atoms: _299  and  _300
REMARK  120  A    between atoms: _302  and  _304
REMARK  121  A    between atoms: _304  and  _305
REMARK  122  A    between atoms: _304  and  _307
REMARK  123  A    between atoms: _307  and  _308
REMARK  124  A    between atoms: _310  and  _312
REMARK  125  A    between atoms: _312  and  _313
REMARK  126  A    between atoms: _312  and  _315
REMARK  127  A    between atoms: _315  and  _316
REMARK                            x       y       z     vdW  Elec       q    Type
REMARK                         _______ _______ _______ _____ _____    ______ ____
ROOT
ATOM      1  C   VAL A   2     -15.702 -11.408  10.036  0.00  0.00    +0.241 C 
ATOM      2  O   VAL A   2     -16.240 -10.308   9.841  0.00  0.00    -0.273 OA
ATOM      3  N   GLY A   3     -16.057 -12.522   9.415  0.00  0.00    -0.295 N 
ATOM      4  H   GLY A   3     -15.582 -13.405   9.692  0.00  0.00    +0.150 HD
ENDROOT
BRANCH   1   5
ATOM      5  CA  VAL A   2     -14.588 -11.586  11.071  0.00  0.00    +0.148 C 
BRANCH   5   7
ATOM      6  C   GLY A   1     -12.479 -10.792  10.163  0.00  0.00    +0.240 C 
ATOM      7  N   VAL A   2     -13.525 -10.598  10.954  0.00  0.00    -0.297 N 
ATOM      8  H   VAL A   2     -13.588  -9.718  11.505  0.00  0.00    +0.150 HD
ATOM      9  O   GLY A   1     -12.340 -11.803   9.457  0.00  0.00    -0.274 OA
BRANCH   6  10
ATOM     10  CA  GLY A   1     -11.449  -9.673  10.144  0.00  0.00    +0.169 C 
BRANCH  10  11
ATOM     11  N   GLY A   1     -10.086 -10.174  10.058  0.00  0.00    -0.236 NA
ATOM     12  H   GLY A   1      -9.552 -10.050   9.174  0.00  0.00    +0.142 HD
ENDBRANCH  10  11
ENDBRANCH   6  10
ENDBRANCH   5   7
BRANCH   5  13
ATOM     13  CB  VAL A   2     -15.214 -11.543  12.467  0.00  0.00    +0.027 C 
ATOM     14  CG2 VAL A   2     -14.126 -11.719  13.506  0.00  0.00    +0.002 C 
ATOM     15  CG1 VAL A   2     -16.246 -12.621  12.602  0.00  0.00    +0.002 C 
ENDBRANCH   5  13
ENDBRANCH   1   5
BRANCH   3  16
ATOM     16  CA  GLY A   3     -17.063 -12.592   8.375  0.00  0.00    +0.176 C 
BRANCH  16  17
ATOM     17  C   GLY A   3     -17.490 -14.038   8.175  0.00  0.00    +0.243 C 
ATOM     18  N   SER A   4     -17.626 -14.762   9.286  0.00  0.00    -0.296 N 
ATOM     19  H   SER A   4     -17.497 -14.281  10.199  0.00  0.00    +0.150 HD
ATOM     20  O   GLY A   3     -17.734 -14.471   7.055  0.00  0.00    -0.273 OA
BRANCH  18  21
ATOM     21  CA  SER A   4     -17.947 -16.199   9.303  0.00  0.00    +0.166 C 
BRANCH  21  22
ATOM     22  C   SER A   4     -19.228 -16.611   8.563  0.00  0.00    +0.229 C 
ATOM     23  O   SER A   4     -19.220 -17.565   7.799  0.00  0.00    -0.286 OA
ENDBRANCH  21  22
BRANCH  21  24
ATOM     24  CB  SER A   4     -18.035 -16.653  10.766  0.00  0.00    +0.165 C 
BRANCH  24  25
ATOM     25  OG  SER A   4     -17.929 -18.063  10.876  0.00  0.00    -0.380 OA
ATOM     26  H   SER A   4     -18.665 -18.489  10.369  0.00  0.00    +0.211 HD
ENDBRANCH  24  25
ENDBRANCH  21  24
ENDBRANCH  18  21
ENDBRANCH  16  17
ENDBRANCH   3  16
TORSDOF 11
REMARK  Name = ../refined-set-2016/4b5t/4b5t_pocket.pdb
REMARK  127 active torsions:
REMARK  status: ('A' for Active; 'I' for Inactive)
REMARK    1  A    between atoms: _1  and  _3
REMARK    2  A    between atoms: _3  and  _4
REMARK    3  A    between atoms: _3  and  _6
REMARK    4  A    between atoms: _6  and  _7
REMARK    5  A    between atoms: _17  and  _19
REMARK    6  A    between atoms: _19  and  _20
REMARK    7  A    between atoms: _19  and  _22
REMARK    8  A    between atoms: _22  and  _23
REMARK    9  A    between atoms: _33  and  _35
REMARK   10  A    between atoms: _35  and  _36
REMARK   11  A    between atoms: _35  and  _38
REMARK   12  A    between atoms: _38  and  _39
REMARK   13  A    between atoms: _42  and  _44
REMARK   14  A    between atoms: _44  and  _45
REMARK   15  A    between atoms: _44  and  _47
REMARK   16  A    between atoms: _47  and  _48
REMARK   17  A    between atoms: _51  and  _53
REMARK   18  A    between atoms: _53  and  _54
REMARK   19  A    between atoms: _53  and  _56
REMARK   20  A    between atoms: _56  and  _57
REMARK   21  A    between atoms: _57  and  _58
REMARK   22  A    between atoms: _61  and  _63
REMARK   23  A    between atoms: _63  and  _64
REMARK   24  A    between atoms: _63  and  _66
REMARK   25  A    between atoms: _66  and  _67
REMARK   26  A    between atoms: _72  and  _74
REMARK   27  A    between atoms: _74  and  _75
REMARK   28  A    between atoms: _74  and  _77
REMARK   29  A    between atoms: _77  and  _78
REMARK   30  A    between atoms: _78  and  _79
REMARK   31  A    between atoms: _79  and  _80
REMARK   32  A    between atoms: _89  and  _91
REMARK   33  A    between atoms: _91  and  _92
REMARK   34  A    between atoms: _91  and  _94
REMARK   35  A    between atoms: _94  and  _95
REMARK   36  A    between atoms: _99  and  _100
REMARK   37  A    between atoms: _105  and  _107
REMARK   38  A    between atoms: _107  and  _108
REMARK   39  A    between atoms: _107  and  _110
REMARK   40  A    between atoms: _110  and  _111
REMARK   41  A    between atoms: _111  and  _112
REMARK   42  A    between atoms: _114  and  _116
REMARK   43  A    between atoms: _116  and  _117
REMARK   44  A    between atoms: _116  and  _119
REMARK   45  A    between atoms: _119  and  _120
REMARK   46  A    between atoms: _120  and  _121
REMARK   47  A    between atoms: _126  and  _128
REMARK   48  A    between atoms: _128  and  _129
REMARK   49  A    between atoms: _128  and  _131
REMARK   50  A    between atoms: _131  and  _132
REMARK   51  A    between atoms: _135  and  _137
REMARK   52  A    between atoms: _137  and  _138
REMARK   53  A    between atoms: _137  and  _140
REMARK   54  A    between atoms: _140  and  _141
REMARK   55  A    between atoms: _141  and  _142
REMARK   56  A    between atoms: _142  and  _143
REMARK   57  A    between atoms: _143  and  CO_319
REMARK   58  A    between atoms: _145  and  _147
REMARK   59  A    between atoms: _147  and  _148
REMARK   60  A    between atoms: _147  and  _150
REMARK   61  A    between atoms: _150  and  _151
REMARK   62  A    between atoms: _157  and  _159
REMARK   63  A    between atoms: _159  and  _160
REMARK   64  A    between atoms: _159  and  _162
REMARK   65  A    between atoms: _162  and  _163
REMARK   66  A    between atoms: _166  and  _168
REMARK   67  A    between atoms: _168  and  _169
REMARK   68  A    between atoms: _172  and  _173
REMARK   69  A    between atoms: _178  and  _180
REMARK   70  A    between atoms: _180  and  _181
REMARK   71  A    between atoms: _184  and  _186
REMARK   72  A    between atoms: _186  and  _187
REMARK   73  A    between atoms: _186  and  _189
REMARK   74  A    between atoms: _189  and  _190
REMARK   75  A    between atoms: _190  and  _192
REMARK   76  A    between atoms: _192  and  CO_319
REMARK   77  A    between atoms: _193  and  _195
REMARK   78  A    between atoms: _195  and  _196
REMARK   79  A    between atoms: _195  and  _198
REMARK   80  A    between atoms: _198  and  _199
REMARK   81  A    between atoms: _202  and  _204
REMARK   82  A    between atoms: _204  and  _205
REMARK   83  A    between atoms: _204  and  _207
REMARK   84  A    between atoms: _207  and  _208
REMARK   85  A    between atoms: _210  and  _212
REMARK   86  A    between atoms: _212  and  _213
REMARK   87  A    between atoms: _216  and  _218
REMARK   88  A    between atoms: _218  and  _219
REMARK   89  A    between atoms: _218  and  _221
REMARK   90  A    between atoms: _221  and  _222
REMARK   91  A    between atoms: _225  and  _227
REMARK   92  A    between atoms: _227  and  _228
REMARK   93  A    between atoms: _231  and  _232
REMARK   94  A    between atoms: _237  and  _239
REMARK   95  A    between atoms: _239  and  _240
REMARK   96  A    between atoms: _239  and  _242
REMARK   97  A    between atoms: _242  and  _243
REMARK   98  A    between atoms: _246  and  _248
REMARK   99  A    between atoms: _248  and  _249
REMARK  100  A    between atoms: _248  and  _251
REMARK  101  A    between atoms: _251  and  _252
REMARK  102  A    between atoms: _255  and  _257
REMARK  103  A    between atoms: _257  and  _258
REMARK  104  A    between atoms: _257  and  _260
REMARK  105  A    between atoms: _260  and  _261
REMARK  106  A    between atoms: _264  and  _266
REMARK  107  A    between atoms: _266  and  _267
REMARK  108  A    between atoms: _270  and  _272
REMARK  109  A    between atoms: _272  and  _273
REMARK  110  A    between atoms: _276  and  _278
REMARK  111  A    between atoms: _278  and  _279
REMARK  112  A    between atoms: _278  and  _281
REMARK  113  A    between atoms: _284  and  _286
REMARK  114  A    between atoms: _286  and  _287
REMARK  115  A    between atoms: _289  and  _291
REMARK  116  A    between atoms: _291  and  _292
REMARK  117  A    between atoms: _291  and  _294
REMARK  118  A    between atoms: _297  and  _299
REMARK  119  A    between atoms: _299  and  _300
REMARK  120  A    between atoms: _302  and  _304
REMARK  121  A    between atoms: _304  and  _305
REMARK  122  A    between atoms: _304  and  _307
REMARK  123  A    between atoms: _307  and  _308
REMARK  124  A    between atoms: _310  and  _312
REMARK  125  A    between atoms: _312  and  _313
REMARK  126  A    between atoms: _312  and  _315
REMARK  127  A    between atoms: _315  and  _316
REMARK                            x       y       z     vdW  Elec       q    Type
REMARK                         _______ _______ _______ _____ _____    ______ ____
ROOT
ATOM      1  CA  LEU A   1     -20.519 -15.381   4.582  0.00  0.00    +0.133 C 
ENDROOT
BRANCH   1   2
ATOM      2  N   LEU A   1     -20.643 -15.459   6.045  0.00  0.00    -0.239 NA
ATOM      3  H   LEU A   1     -20.064 -14.832   6.639  0.00  0.00    +0.142 HD
ENDBRANCH   1   2
BRANCH   1   4
ATOM      4  C   LEU A   1     -19.525 -16.370   3.980  0.00  0.00    +0.224 C 
ATOM      5  O   LEU A   1     -19.415 -16.467   2.760  0.00  0.00    -0.287 OA
ENDBRANCH   1   4
BRANCH   1   6
ATOM      6  CB  LEU A   1     -20.066 -13.971   4.143  0.00  0.00    +0.025 C 
BRANCH   6   7
ATOM      7  CG  LEU A   1     -21.104 -12.844   4.048  0.00  0.00    +0.002 C 
ATOM      8  CD2 LEU A   1     -21.392 -12.272   5.418  0.00  0.00    +0.000 C 
ATOM      9  CD1 LEU A   1     -20.592 -11.740   3.133  0.00  0.00    +0.000 C 
ENDBRANCH   6   7
ENDBRANCH   1   6
TORSDOF 4
REMARK  Name = ../refined-set-2016/4b5t/4b5t_pocket.pdb
REMARK  127 active torsions:
REMARK  status: ('A' for Active; 'I' for Inactive)
REMARK    1  A    between atoms: _1  and  _3
REMARK    2  A    between atoms: _3  and  _4
REMARK    3  A    between atoms: _3  and  _6
REMARK    4  A    between atoms: _6  and  _7
REMARK    5  A    between atoms: _17  and  _19
REMARK    6  A    between atoms: _19  and  _20
REMARK    7  A    between atoms: _19  and  _22
REMARK    8  A    between atoms: _22  and  _23
REMARK    9  A    between atoms: _33  and  _35
REMARK   10  A    between atoms: _35  and  _36
REMARK   11  A    between atoms: _35  and  _38
REMARK   12  A    between atoms: _38  and  _39
REMARK   13  A    between atoms: _42  and  _44
REMARK   14  A    between atoms: _44  and  _45
REMARK   15  A    between atoms: _44  and  _47
REMARK   16  A    between atoms: _47  and  _48
REMARK   17  A    between atoms: _51  and  _53
REMARK   18  A    between atoms: _53  and  _54
REMARK   19  A    between atoms: _53  and  _56
REMARK   20  A    between atoms: _56  and  _57
REMARK   21  A    between atoms: _57  and  _58
REMARK   22  A    between atoms: _61  and  _63
REMARK   23  A    between atoms: _63  and  _64
REMARK   24  A    between atoms: _63  and  _66
REMARK   25  A    between atoms: _66  and  _67
REMARK   26  A    between atoms: _72  and  _74
REMARK   27  A    between atoms: _74  and  _75
REMARK   28  A    between atoms: _74  and  _77
REMARK   29  A    between atoms: _77  and  _78
REMARK   30  A    between atoms: _78  and  _79
REMARK   31  A    between atoms: _79  and  _80
REMARK   32  A    between atoms: _89  and  _91
REMARK   33  A    between atoms: _91  and  _92
REMARK   34  A    between atoms: _91  and  _94
REMARK   35  A    between atoms: _94  and  _95
REMARK   36  A    between atoms: _99  and  _100
REMARK   37  A    between atoms: _105  and  _107
REMARK   38  A    between atoms: _107  and  _108
REMARK   39  A    between atoms: _107  and  _110
REMARK   40  A    between atoms: _110  and  _111
REMARK   41  A    between atoms: _111  and  _112
REMARK   42  A    between atoms: _114  and  _116
REMARK   43  A    between atoms: _116  and  _117
REMARK   44  A    between atoms: _116  and  _119
REMARK   45  A    between atoms: _119  and  _120
REMARK   46  A    between atoms: _120  and  _121
REMARK   47  A    between atoms: _126  and  _128
REMARK   48  A    between atoms: _128  and  _129
REMARK   49  A    between atoms: _128  and  _131
REMARK   50  A    between atoms: _131  and  _132
REMARK   51  A    between atoms: _135  and  _137
REMARK   52  A    between atoms: _137  and  _138
REMARK   53  A    between atoms: _137  and  _140
REMARK   54  A    between atoms: _140  and  _141
REMARK   55  A    between atoms: _141  and  _142
REMARK   56  A    between atoms: _142  and  _143
REMARK   57  A    between atoms: _143  and  CO_319
REMARK   58  A    between atoms: _145  and  _147
REMARK   59  A    between atoms: _147  and  _148
REMARK   60  A    between atoms: _147  and  _150
REMARK   61  A    between atoms: _150  and  _151
REMARK   62  A    between atoms: _157  and  _159
REMARK   63  A    between atoms: _159  and  _160
REMARK   64  A    between atoms: _159  and  _162
REMARK   65  A    between atoms: _162  and  _163
REMARK   66  A    between atoms: _166  and  _168
REMARK   67  A    between atoms: _168  and  _169
REMARK   68  A    between atoms: _172  and  _173
REMARK   69  A    between atoms: _178  and  _180
REMARK   70  A    between atoms: _180  and  _181
REMARK   71  A    between atoms: _184  and  _186
REMARK   72  A    between atoms: _186  and  _187
REMARK   73  A    between atoms: _186  and  _189
REMARK   74  A    between atoms: _189  and  _190
REMARK   75  A    between atoms: _190  and  _192
REMARK   76  A    between atoms: _192  and  CO_319
REMARK   77  A    between atoms: _193  and  _195
REMARK   78  A    between atoms: _195  and  _196
REMARK   79  A    between atoms: _195  and  _198
REMARK   80  A    between atoms: _198  and  _199
REMARK   81  A    between atoms: _202  and  _204
REMARK   82  A    between atoms: _204  and  _205
REMARK   83  A    between atoms: _204  and  _207
REMARK   84  A    between atoms: _207  and  _208
REMARK   85  A    between atoms: _210  and  _212
REMARK   86  A    between atoms: _212  and  _213
REMARK   87  A    between atoms: _216  and  _218
REMARK   88  A    between atoms: _218  and  _219
REMARK   89  A    between atoms: _218  and  _221
REMARK   90  A    between atoms: _221  and  _222
REMARK   91  A    between atoms: _225  and  _227
REMARK   92  A    between atoms: _227  and  _228
REMARK   93  A    between atoms: _231  and  _232
REMARK   94  A    between atoms: _237  and  _239
REMARK   95  A    between atoms: _239  and  _240
REMARK   96  A    between atoms: _239  and  _242
REMARK   97  A    between atoms: _242  and  _243
REMARK   98  A    between atoms: _246  and  _248
REMARK   99  A    between atoms: _248  and  _249
REMARK  100  A    between atoms: _248  and  _251
REMARK  101  A    between atoms: _251  and  _252
REMARK  102  A    between atoms: _255  and  _257
REMARK  103  A    between atoms: _257  and  _258
REMARK  104  A    between atoms: _257  and  _260
REMARK  105  A    between atoms: _260  and  _261
REMARK  106  A    between atoms: _264  and  _266
REMARK  107  A    between atoms: _266  and  _267
REMARK  108  A    between atoms: _270  and  _272
REMARK  109  A    between atoms: _272  and  _273
REMARK  110  A    between atoms: _276  and  _278
REMARK  111  A    between atoms: _278  and  _279
REMARK  112  A    between atoms: _278  and  _281
REMARK  113  A    between atoms: _284  and  _286
REMARK  114  A    between atoms: _286  and  _287
REMARK  115  A    between atoms: _289  and  _291
REMARK  116  A    between atoms: _291  and  _292
REMARK  117  A    between atoms: _291  and  _294
REMARK  118  A    between atoms: _297  and  _299
REMARK  119  A    between atoms: _299  and  _300
REMARK  120  A    between atoms: _302  and  _304
REMARK  121  A    between atoms: _304  and  _305
REMARK  122  A    between atoms: _304  and  _307
REMARK  123  A    between atoms: _307  and  _308
REMARK  124  A    between atoms: _310  and  _312
REMARK  125  A    between atoms: _312  and  _313
REMARK  126  A    between atoms: _312  and  _315
REMARK  127  A    between atoms: _315  and  _316
REMARK                            x       y       z     vdW  Elec       q    Type
REMARK                         _______ _______ _______ _____ _____    ______ ____
ROOT
ATOM      1 MG   UNL     1     -16.705  -6.139   9.816  0.00  0.00    +0.000 Mg
ATOM      2  O   UNL     1     -17.109  -8.210   8.630  0.00  0.00    +0.000 OA
ENDROOT
TORSDOF 0
REMARK  Name = ../refined-set-2016/4b5t/4b5t_pocket.pdb
REMARK  127 active torsions:
REMARK  status: ('A' for Active; 'I' for Inactive)
REMARK    1  A    between atoms: _1  and  _3
REMARK    2  A    between atoms: _3  and  _4
REMARK    3  A    between atoms: _3  and  _6
REMARK    4  A    between atoms: _6  and  _7
REMARK    5  A    between atoms: _17  and  _19
REMARK    6  A    between atoms: _19  and  _20
REMARK    7  A    between atoms: _19  and  _22
REMARK    8  A    between atoms: _22  and  _23
REMARK    9  A    between atoms: _33  and  _35
REMARK   10  A    between atoms: _35  and  _36
REMARK   11  A    between atoms: _35  and  _38
REMARK   12  A    between atoms: _38  and  _39
REMARK   13  A    between atoms: _42  and  _44
REMARK   14  A    between atoms: _44  and  _45
REMARK   15  A    between atoms: _44  and  _47
REMARK   16  A    between atoms: _47  and  _48
REMARK   17  A    between atoms: _51  and  _53
REMARK   18  A    between atoms: _53  and  _54
REMARK   19  A    between atoms: _53  and  _56
REMARK   20  A    between atoms: _56  and  _57
REMARK   21  A    between atoms: _57  and  _58
REMARK   22  A    between atoms: _61  and  _63
REMARK   23  A    between atoms: _63  and  _64
REMARK   24  A    between atoms: _63  and  _66
REMARK   25  A    between atoms: _66  and  _67
REMARK   26  A    between atoms: _72  and  _74
REMARK   27  A    between atoms: _74  and  _75
REMARK   28  A    between atoms: _74  and  _77
REMARK   29  A    between atoms: _77  and  _78
REMARK   30  A    between atoms: _78  and  _79
REMARK   31  A    between atoms: _79  and  _80
REMARK   32  A    between atoms: _89  and  _91
REMARK   33  A    between atoms: _91  and  _92
REMARK   34  A    between atoms: _91  and  _94
REMARK   35  A    between atoms: _94  and  _95
REMARK   36  A    between atoms: _99  and  _100
REMARK   37  A    between atoms: _105  and  _107
REMARK   38  A    between atoms: _107  and  _108
REMARK   39  A    between atoms: _107  and  _110
REMARK   40  A    between atoms: _110  and  _111
REMARK   41  A    between atoms: _111  and  _112
REMARK   42  A    between atoms: _114  and  _116
REMARK   43  A    between atoms: _116  and  _117
REMARK   44  A    between atoms: _116  and  _119
REMARK   45  A    between atoms: _119  and  _120
REMARK   46  A    between atoms: _120  and  _121
REMARK   47  A    between atoms: _126  and  _128
REMARK   48  A    between atoms: _128  and  _129
REMARK   49  A    between atoms: _128  and  _131
REMARK   50  A    between atoms: _131  and  _132
REMARK   51  A    between atoms: _135  and  _137
REMARK   52  A    between atoms: _137  and  _138
REMARK   53  A    between atoms: _137  and  _140
REMARK   54  A    between atoms: _140  and  _141
REMARK   55  A    between atoms: _141  and  _142
REMARK   56  A    between atoms: _142  and  _143
REMARK   57  A    between atoms: _143  and  CO_319
REMARK   58  A    between atoms: _145  and  _147
REMARK   59  A    between atoms: _147  and  _148
REMARK   60  A    between atoms: _147  and  _150
REMARK   61  A    between atoms: _150  and  _151
REMARK   62  A    between atoms: _157  and  _159
REMARK   63  A    between atoms: _159  and  _160
REMARK   64  A    between atoms: _159  and  _162
REMARK   65  A    between atoms: _162  and  _163
REMARK   66  A    between atoms: _166  and  _168
REMARK   67  A    between atoms: _168  and  _169
REMARK   68  A    between atoms: _172  and  _173
REMARK   69  A    between atoms: _178  and  _180
REMARK   70  A    between atoms: _180  and  _181
REMARK   71  A    between atoms: _184  and  _186
REMARK   72  A    between atoms: _186  and  _187
REMARK   73  A    between atoms: _186  and  _189
REMARK   74  A    between atoms: _189  and  _190
REMARK   75  A    between atoms: _190  and  _192
REMARK   76  A    between atoms: _192  and  CO_319
REMARK   77  A    between atoms: _193  and  _195
REMARK   78  A    between atoms: _195  and  _196
REMARK   79  A    between atoms: _195  and  _198
REMARK   80  A    between atoms: _198  and  _199
REMARK   81  A    between atoms: _202  and  _204
REMARK   82  A    between atoms: _204  and  _205
REMARK   83  A    between atoms: _204  and  _207
REMARK   84  A    between atoms: _207  and  _208
REMARK   85  A    between atoms: _210  and  _212
REMARK   86  A    between atoms: _212  and  _213
REMARK   87  A    between atoms: _216  and  _218
REMARK   88  A    between atoms: _218  and  _219
REMARK   89  A    between atoms: _218  and  _221
REMARK   90  A    between atoms: _221  and  _222
REMARK   91  A    between atoms: _225  and  _227
REMARK   92  A    between atoms: _227  and  _228
REMARK   93  A    between atoms: _231  and  _232
REMARK   94  A    between atoms: _237  and  _239
REMARK   95  A    between atoms: _239  and  _240
REMARK   96  A    between atoms: _239  and  _242
REMARK   97  A    between atoms: _242  and  _243
REMARK   98  A    between atoms: _246  and  _248
REMARK   99  A    between atoms: _248  and  _249
REMARK  100  A    between atoms: _248  and  _251
REMARK  101  A    between atoms: _251  and  _252
REMARK  102  A    between atoms: _255  and  _257
REMARK  103  A    between atoms: _257  and  _258
REMARK  104  A    between atoms: _257  and  _260
REMARK  105  A    between atoms: _260  and  _261
REMARK  106  A    between atoms: _264  and  _266
REMARK  107  A    between atoms: _266  and  _267
REMARK  108  A    between atoms: _270  and  _272
REMARK  109  A    between atoms: _272  and  _273
REMARK  110  A    between atoms: _276  and  _278
REMARK  111  A    between atoms: _278  and  _279
REMARK  112  A    between atoms: _278  and  _281
REMARK  113  A    between atoms: _284  and  _286
REMARK  114  A    between atoms: _286  and  _287
REMARK  115  A    between atoms: _289  and  _291
REMARK  116  A    between atoms: _291  and  _292
REMARK  117  A    between atoms: _291  and  _294
REMARK  118  A    between atoms: _297  and  _299
REMARK  119  A    between atoms: _299  and  _300
REMARK  120  A    between atoms: _302  and  _304
REMARK  121  A    between atoms: _304  and  _305
REMARK  122  A    between atoms: _304  and  _307
REMARK  123  A    between atoms: _307  and  _308
REMARK  124  A    between atoms: _310  and  _312
REMARK  125  A    between atoms: _312  and  _313
REMARK  126  A    between atoms: _312  and  _315
REMARK  127  A    between atoms: _315  and  _316
REMARK                            x       y       z     vdW  Elec       q    Type
REMARK                         _______ _______ _______ _____ _____    ______ ____
ROOT
ATOM      1  O   HOH     1     -13.330  -7.239   8.560  0.00  0.00    +0.000 OA
ENDROOT
TORSDOF 0
REMARK  Name = ../refined-set-2016/4b5t/4b5t_pocket.pdb
REMARK  127 active torsions:
REMARK  status: ('A' for Active; 'I' for Inactive)
REMARK    1  A    between atoms: _1  and  _3
REMARK    2  A    between atoms: _3  and  _4
REMARK    3  A    between atoms: _3  and  _6
REMARK    4  A    between atoms: _6  and  _7
REMARK    5  A    between atoms: _17  and  _19
REMARK    6  A    between atoms: _19  and  _20
REMARK    7  A    between atoms: _19  and  _22
REMARK    8  A    between atoms: _22  and  _23
REMARK    9  A    between atoms: _33  and  _35
REMARK   10  A    between atoms: _35  and  _36
REMARK   11  A    between atoms: _35  and  _38
REMARK   12  A    between atoms: _38  and  _39
REMARK   13  A    between atoms: _42  and  _44
REMARK   14  A    between atoms: _44  and  _45
REMARK   15  A    between atoms: _44  and  _47
REMARK   16  A    between atoms: _47  and  _48
REMARK   17  A    between atoms: _51  and  _53
REMARK   18  A    between atoms: _53  and  _54
REMARK   19  A    between atoms: _53  and  _56
REMARK   20  A    between atoms: _56  and  _57
REMARK   21  A    between atoms: _57  and  _58
REMARK   22  A    between atoms: _61  and  _63
REMARK   23  A    between atoms: _63  and  _64
REMARK   24  A    between atoms: _63  and  _66
REMARK   25  A    between atoms: _66  and  _67
REMARK   26  A    between atoms: _72  and  _74
REMARK   27  A    between atoms: _74  and  _75
REMARK   28  A    between atoms: _74  and  _77
REMARK   29  A    between atoms: _77  and  _78
REMARK   30  A    between atoms: _78  and  _79
REMARK   31  A    between atoms: _79  and  _80
REMARK   32  A    between atoms: _89  and  _91
REMARK   33  A    between atoms: _91  and  _92
REMARK   34  A    between atoms: _91  and  _94
REMARK   35  A    between atoms: _94  and  _95
REMARK   36  A    between atoms: _99  and  _100
REMARK   37  A    between atoms: _105  and  _107
REMARK   38  A    between atoms: _107  and  _108
REMARK   39  A    between atoms: _107  and  _110
REMARK   40  A    between atoms: _110  and  _111
REMARK   41  A    between atoms: _111  and  _112
REMARK   42  A    between atoms: _114  and  _116
REMARK   43  A    between atoms: _116  and  _117
REMARK   44  A    between atoms: _116  and  _119
REMARK   45  A    between atoms: _119  and  _120
REMARK   46  A    between atoms: _120  and  _121
REMARK   47  A    between atoms: _126  and  _128
REMARK   48  A    between atoms: _128  and  _129
REMARK   49  A    between atoms: _128  and  _131
REMARK   50  A    between atoms: _131  and  _132
REMARK   51  A    between atoms: _135  and  _137
REMARK   52  A    between atoms: _137  and  _138
REMARK   53  A    between atoms: _137  and  _140
REMARK   54  A    between atoms: _140  and  _141
REMARK   55  A    between atoms: _141  and  _142
REMARK   56  A    between atoms: _142  and  _143
REMARK   57  A    between atoms: _143  and  CO_319
REMARK   58  A    between atoms: _145  and  _147
REMARK   59  A    between atoms: _147  and  _148
REMARK   60  A    between atoms: _147  and  _150
REMARK   61  A    between atoms: _150  and  _151
REMARK   62  A    between atoms: _157  and  _159
REMARK   63  A    between atoms: _159  and  _160
REMARK   64  A    between atoms: _159  and  _162
REMARK   65  A    between atoms: _162  and  _163
REMARK   66  A    between atoms: _166  and  _168
REMARK   67  A    between atoms: _168  and  _169
REMARK   68  A    between atoms: _172  and  _173
REMARK   69  A    between atoms: _178  and  _180
REMARK   70  A    between atoms: _180  and  _181
REMARK   71  A    between atoms: _184  and  _186
REMARK   72  A    between atoms: _186  and  _187
REMARK   73  A    between atoms: _186  and  _189
REMARK   74  A    between atoms: _189  and  _190
REMARK   75  A    between atoms: _190  and  _192
REMARK   76  A    between atoms: _192  and  CO_319
REMARK   77  A    between atoms: _193  and  _195
REMARK   78  A    between atoms: _195  and  _196
REMARK   79  A    between atoms: _195  and  _198
REMARK   80  A    between atoms: _198  and  _199
REMARK   81  A    between atoms: _202  and  _204
REMARK   82  A    between atoms: _204  and  _205
REMARK   83  A    between atoms: _204  and  _207
REMARK   84  A    between atoms: _207  and  _208
REMARK   85  A    between atoms: _210  and  _212
REMARK   86  A    between atoms: _212  and  _213
REMARK   87  A    between atoms: _216  and  _218
REMARK   88  A    between atoms: _218  and  _219
REMARK   89  A    between atoms: _218  and  _221
REMARK   90  A    between atoms: _221  and  _222
REMARK   91  A    between atoms: _225  and  _227
REMARK   92  A    between atoms: _227  and  _228
REMARK   93  A    between atoms: _231  and  _232
REMARK   94  A    between atoms: _237  and  _239
REMARK   95  A    between atoms: _239  and  _240
REMARK   96  A    between atoms: _239  and  _242
REMARK   97  A    between atoms: _242  and  _243
REMARK   98  A    between atoms: _246  and  _248
REMARK   99  A    between atoms: _248  and  _249
REMARK  100  A    between atoms: _248  and  _251
REMARK  101  A    between atoms: _251  and  _252
REMARK  102  A    between atoms: _255  and  _257
REMARK  103  A    between atoms: _257  and  _258
REMARK  104  A    between atoms: _257  and  _260
REMARK  105  A    between atoms: _260  and  _261
REMARK  106  A    between atoms: _264  and  _266
REMARK  107  A    between atoms: _266  and  _267
REMARK  108  A    between atoms: _270  and  _272
REMARK  109  A    between atoms: _272  and  _273
REMARK  110  A    between atoms: _276  and  _278
REMARK  111  A    between atoms: _278  and  _279
REMARK  112  A    between atoms: _278  and  _281
REMARK  113  A    between atoms: _284  and  _286
REMARK  114  A    between atoms: _286  and  _287
REMARK  115  A    between atoms: _289  and  _291
REMARK  116  A    between atoms: _291  and  _292
REMARK  117  A    between atoms: _291  and  _294
REMARK  118  A    between atoms: _297  and  _299
REMARK  119  A    between atoms: _299  and  _300
REMARK  120  A    between atoms: _302  and  _304
REMARK  121  A    between atoms: _304  and  _305
REMARK  122  A    between atoms: _304  and  _307
REMARK  123  A    between atoms: _307  and  _308
REMARK  124  A    between atoms: _310  and  _312
REMARK  125  A    between atoms: _312  and  _313
REMARK  126  A    between atoms: _312  and  _315
REMARK  127  A    between atoms: _315  and  _316
REMARK                            x       y       z     vdW  Elec       q    Type
REMARK                         _______ _______ _______ _____ _____    ______ ____
ROOT
ATOM      1  O   HOH     1     -19.635  -8.876   7.961  0.00  0.00    +0.000 OA
ENDROOT
TORSDOF 0
REMARK  Name = ../refined-set-2016/4b5t/4b5t_pocket.pdb
REMARK  127 active torsions:
REMARK  status: ('A' for Active; 'I' for Inactive)
REMARK    1  A    between atoms: _1  and  _3
REMARK    2  A    between atoms: _3  and  _4
REMARK    3  A    between atoms: _3  and  _6
REMARK    4  A    between atoms: _6  and  _7
REMARK    5  A    between atoms: _17  and  _19
REMARK    6  A    between atoms: _19  and  _20
REMARK    7  A    between atoms: _19  and  _22
REMARK    8  A    between atoms: _22  and  _23
REMARK    9  A    between atoms: _33  and  _35
REMARK   10  A    between atoms: _35  and  _36
REMARK   11  A    between atoms: _35  and  _38
REMARK   12  A    between atoms: _38  and  _39
REMARK   13  A    between atoms: _42  and  _44
REMARK   14  A    between atoms: _44  and  _45
REMARK   15  A    between atoms: _44  and  _47
REMARK   16  A    between atoms: _47  and  _48
REMARK   17  A    between atoms: _51  and  _53
REMARK   18  A    between atoms: _53  and  _54
REMARK   19  A    between atoms: _53  and  _56
REMARK   20  A    between atoms: _56  and  _57
REMARK   21  A    between atoms: _57  and  _58
REMARK   22  A    between atoms: _61  and  _63
REMARK   23  A    between atoms: _63  and  _64
REMARK   24  A    between atoms: _63  and  _66
REMARK   25  A    between atoms: _66  and  _67
REMARK   26  A    between atoms: _72  and  _74
REMARK   27  A    between atoms: _74  and  _75
REMARK   28  A    between atoms: _74  and  _77
REMARK   29  A    between atoms: _77  and  _78
REMARK   30  A    between atoms: _78  and  _79
REMARK   31  A    between atoms: _79  and  _80
REMARK   32  A    between atoms: _89  and  _91
REMARK   33  A    between atoms: _91  and  _92
REMARK   34  A    between atoms: _91  and  _94
REMARK   35  A    between atoms: _94  and  _95
REMARK   36  A    between atoms: _99  and  _100
REMARK   37  A    between atoms: _105  and  _107
REMARK   38  A    between atoms: _107  and  _108
REMARK   39  A    between atoms: _107  and  _110
REMARK   40  A    between atoms: _110  and  _111
REMARK   41  A    between atoms: _111  and  _112
REMARK   42  A    between atoms: _114  and  _116
REMARK   43  A    between atoms: _116  and  _117
REMARK   44  A    between atoms: _116  and  _119
REMARK   45  A    between atoms: _119  and  _120
REMARK   46  A    between atoms: _120  and  _121
REMARK   47  A    between atoms: _126  and  _128
REMARK   48  A    between atoms: _128  and  _129
REMARK   49  A    between atoms: _128  and  _131
REMARK   50  A    between atoms: _131  and  _132
REMARK   51  A    between atoms: _135  and  _137
REMARK   52  A    between atoms: _137  and  _138
REMARK   53  A    between atoms: _137  and  _140
REMARK   54  A    between atoms: _140  and  _141
REMARK   55  A    between atoms: _141  and  _142
REMARK   56  A    between atoms: _142  and  _143
REMARK   57  A    between atoms: _143  and  CO_319
REMARK   58  A    between atoms: _145  and  _147
REMARK   59  A    between atoms: _147  and  _148
REMARK   60  A    between atoms: _147  and  _150
REMARK   61  A    between atoms: _150  and  _151
REMARK   62  A    between atoms: _157  and  _159
REMARK   63  A    between atoms: _159  and  _160
REMARK   64  A    between atoms: _159  and  _162
REMARK   65  A    between atoms: _162  and  _163
REMARK   66  A    between atoms: _166  and  _168
REMARK   67  A    between atoms: _168  and  _169
REMARK   68  A    between atoms: _172  and  _173
REMARK   69  A    between atoms: _178  and  _180
REMARK   70  A    between atoms: _180  and  _181
REMARK   71  A    between atoms: _184  and  _186
REMARK   72  A    between atoms: _186  and  _187
REMARK   73  A    between atoms: _186  and  _189
REMARK   74  A    between atoms: _189  and  _190
REMARK   75  A    between atoms: _190  and  _192
REMARK   76  A    between atoms: _192  and  CO_319
REMARK   77  A    between atoms: _193  and  _195
REMARK   78  A    between atoms: _195  and  _196
REMARK   79  A    between atoms: _195  and  _198
REMARK   80  A    between atoms: _198  and  _199
REMARK   81  A    between atoms: _202  and  _204
REMARK   82  A    between atoms: _204  and  _205
REMARK   83  A    between atoms: _204  and  _207
REMARK   84  A    between atoms: _207  and  _208
REMARK   85  A    between atoms: _210  and  _212
REMARK   86  A    between atoms: _212  and  _213
REMARK   87  A    between atoms: _216  and  _218
REMARK   88  A    between atoms: _218  and  _219
REMARK   89  A    between atoms: _218  and  _221
REMARK   90  A    between atoms: _221  and  _222
REMARK   91  A    between atoms: _225  and  _227
REMARK   92  A    between atoms: _227  and  _228
REMARK   93  A    between atoms: _231  and  _232
REMARK   94  A    between atoms: _237  and  _239
REMARK   95  A    between atoms: _239  and  _240
REMARK   96  A    between atoms: _239  and  _242
REMARK   97  A    between atoms: _242  and  _243
REMARK   98  A    between atoms: _246  and  _248
REMARK   99  A    between atoms: _248  and  _249
REMARK  100  A    between atoms: _248  and  _251
REMARK  101  A    between atoms: _251  and  _252
REMARK  102  A    between atoms: _255  and  _257
REMARK  103  A    between atoms: _257  and  _258
REMARK  104  A    between atoms: _257  and  _260
REMARK  105  A    between atoms: _260  and  _261
REMARK  106  A    between atoms: _264  and  _266
REMARK  107  A    between atoms: _266  and  _267
REMARK  108  A    between atoms: _270  and  _272
REMARK  109  A    between atoms: _272  and  _273
REMARK  110  A    between atoms: _276  and  _278
REMARK  111  A    between atoms: _278  and  _279
REMARK  112  A    between atoms: _278  and  _281
REMARK  113  A    between atoms: _284  and  _286
REMARK  114  A    between atoms: _286  and  _287
REMARK  115  A    between atoms: _289  and  _291
REMARK  116  A    between atoms: _291  and  _292
REMARK  117  A    between atoms: _291  and  _294
REMARK  118  A    between atoms: _297  and  _299
REMARK  119  A    between atoms: _299  and  _300
REMARK  120  A    between atoms: _302  and  _304
REMARK  121  A    between atoms: _304  and  _305
REMARK  122  A    between atoms: _304  and  _307
REMARK  123  A    between atoms: _307  and  _308
REMARK  124  A    between atoms: _310  and  _312
REMARK  125  A    between atoms: _312  and  _313
REMARK  126  A    between atoms: _312  and  _315
REMARK  127  A    between atoms: _315  and  _316
REMARK                            x       y       z     vdW  Elec       q    Type
REMARK                         _______ _______ _______ _____ _____    ______ ____
ROOT
ATOM      1  O   HOH     1     -24.966 -11.920  10.337  0.00  0.00    +0.000 OA
ENDROOT
TORSDOF 0
REMARK  Name = ../refined-set-2016/4b5t/4b5t_pocket.pdb
REMARK  127 active torsions:
REMARK  status: ('A' for Active; 'I' for Inactive)
REMARK    1  A    between atoms: _1  and  _3
REMARK    2  A    between atoms: _3  and  _4
REMARK    3  A    between atoms: _3  and  _6
REMARK    4  A    between atoms: _6  and  _7
REMARK    5  A    between atoms: _17  and  _19
REMARK    6  A    between atoms: _19  and  _20
REMARK    7  A    between atoms: _19  and  _22
REMARK    8  A    between atoms: _22  and  _23
REMARK    9  A    between atoms: _33  and  _35
REMARK   10  A    between atoms: _35  and  _36
REMARK   11  A    between atoms: _35  and  _38
REMARK   12  A    between atoms: _38  and  _39
REMARK   13  A    between atoms: _42  and  _44
REMARK   14  A    between atoms: _44  and  _45
REMARK   15  A    between atoms: _44  and  _47
REMARK   16  A    between atoms: _47  and  _48
REMARK   17  A    between atoms: _51  and  _53
REMARK   18  A    between atoms: _53  and  _54
REMARK   19  A    between atoms: _53  and  _56
REMARK   20  A    between atoms: _56  and  _57
REMARK   21  A    between atoms: _57  and  _58
REMARK   22  A    between atoms: _61  and  _63
REMARK   23  A    between atoms: _63  and  _64
REMARK   24  A    between atoms: _63  and  _66
REMARK   25  A    between atoms: _66  and  _67
REMARK   26  A    between atoms: _72  and  _74
REMARK   27  A    between atoms: _74  and  _75
REMARK   28  A    between atoms: _74  and  _77
REMARK   29  A    between atoms: _77  and  _78
REMARK   30  A    between atoms: _78  and  _79
REMARK   31  A    between atoms: _79  and  _80
REMARK   32  A    between atoms: _89  and  _91
REMARK   33  A    between atoms: _91  and  _92
REMARK   34  A    between atoms: _91  and  _94
REMARK   35  A    between atoms: _94  and  _95
REMARK   36  A    between atoms: _99  and  _100
REMARK   37  A    between atoms: _105  and  _107
REMARK   38  A    between atoms: _107  and  _108
REMARK   39  A    between atoms: _107  and  _110
REMARK   40  A    between atoms: _110  and  _111
REMARK   41  A    between atoms: _111  and  _112
REMARK   42  A    between atoms: _114  and  _116
REMARK   43  A    between atoms: _116  and  _117
REMARK   44  A    between atoms: _116  and  _119
REMARK   45  A    between atoms: _119  and  _120
REMARK   46  A    between atoms: _120  and  _121
REMARK   47  A    between atoms: _126  and  _128
REMARK   48  A    between atoms: _128  and  _129
REMARK   49  A    between atoms: _128  and  _131
REMARK   50  A    between atoms: _131  and  _132
REMARK   51  A    between atoms: _135  and  _137
REMARK   52  A    between atoms: _137  and  _138
REMARK   53  A    between atoms: _137  and  _140
REMARK   54  A    between atoms: _140  and  _141
REMARK   55  A    between atoms: _141  and  _142
REMARK   56  A    between atoms: _142  and  _143
REMARK   57  A    between atoms: _143  and  CO_319
REMARK   58  A    between atoms: _145  and  _147
REMARK   59  A    between atoms: _147  and  _148
REMARK   60  A    between atoms: _147  and  _150
REMARK   61  A    between atoms: _150  and  _151
REMARK   62  A    between atoms: _157  and  _159
REMARK   63  A    between atoms: _159  and  _160
REMARK   64  A    between atoms: _159  and  _162
REMARK   65  A    between atoms: _162  and  _163
REMARK   66  A    between atoms: _166  and  _168
REMARK   67  A    between atoms: _168  and  _169
REMARK   68  A    between atoms: _172  and  _173
REMARK   69  A    between atoms: _178  and  _180
REMARK   70  A    between atoms: _180  and  _181
REMARK   71  A    between atoms: _184  and  _186
REMARK   72  A    between atoms: _186  and  _187
REMARK   73  A    between atoms: _186  and  _189
REMARK   74  A    between atoms: _189  and  _190
REMARK   75  A    between atoms: _190  and  _192
REMARK   76  A    between atoms: _192  and  CO_319
REMARK   77  A    between atoms: _193  and  _195
REMARK   78  A    between atoms: _195  and  _196
REMARK   79  A    between atoms: _195  and  _198
REMARK   80  A    between atoms: _198  and  _199
REMARK   81  A    between atoms: _202  and  _204
REMARK   82  A    between atoms: _204  and  _205
REMARK   83  A    between atoms: _204  and  _207
REMARK   84  A    between atoms: _207  and  _208
REMARK   85  A    between atoms: _210  and  _212
REMARK   86  A    between atoms: _212  and  _213
REMARK   87  A    between atoms: _216  and  _218
REMARK   88  A    between atoms: _218  and  _219
REMARK   89  A    between atoms: _218  and  _221
REMARK   90  A    between atoms: _221  and  _222
REMARK   91  A    between atoms: _225  and  _227
REMARK   92  A    between atoms: _227  and  _228
REMARK   93  A    between atoms: _231  and  _232
REMARK   94  A    between atoms: _237  and  _239
REMARK   95  A    between atoms: _239  and  _240
REMARK   96  A    between atoms: _239  and  _242
REMARK   97  A    between atoms: _242  and  _243
REMARK   98  A    between atoms: _246  and  _248
REMARK   99  A    between atoms: _248  and  _249
REMARK  100  A    between atoms: _248  and  _251
REMARK  101  A    between atoms: _251  and  _252
REMARK  102  A    between atoms: _255  and  _257
REMARK  103  A    between atoms: _257  and  _258
REMARK  104  A    between atoms: _257  and  _260
REMARK  105  A    between atoms: _260  and  _261
REMARK  106  A    between atoms: _264  and  _266
REMARK  107  A    between atoms: _266  and  _267
REMARK  108  A    between atoms: _270  and  _272
REMARK  109  A    between atoms: _272  and  _273
REMARK  110  A    between atoms: _276  and  _278
REMARK  111  A    between atoms: _278  and  _279
REMARK  112  A    between atoms: _278  and  _281
REMARK  113  A    between atoms: _284  and  _286
REMARK  114  A    between atoms: _286  and  _287
REMARK  115  A    between atoms: _289  and  _291
REMARK  116  A    between atoms: _291  and  _292
REMARK  117  A    between atoms: _291  and  _294
REMARK  118  A    between atoms: _297  and  _299
REMARK  119  A    between atoms: _299  and  _300
REMARK  120  A    between atoms: _302  and  _304
REMARK  121  A    between atoms: _304  and  _305
REMARK  122  A    between atoms: _304  and  _307
REMARK  123  A    between atoms: _307  and  _308
REMARK  124  A    between atoms: _310  and  _312
REMARK  125  A    between atoms: _312  and  _313
REMARK  126  A    between atoms: _312  and  _315
REMARK  127  A    between atoms: _315  and  _316
REMARK                            x       y       z     vdW  Elec       q    Type
REMARK                         _______ _______ _______ _____ _____    ______ ____
ROOT
ATOM      1  O   HOH     1     -12.025  -5.666  15.024  0.00  0.00    +0.000 OA
ENDROOT
TORSDOF 0
REMARK  Name = ../refined-set-2016/4b5t/4b5t_pocket.pdb
REMARK  127 active torsions:
REMARK  status: ('A' for Active; 'I' for Inactive)
REMARK    1  A    between atoms: _1  and  _3
REMARK    2  A    between atoms: _3  and  _4
REMARK    3  A    between atoms: _3  and  _6
REMARK    4  A    between atoms: _6  and  _7
REMARK    5  A    between atoms: _17  and  _19
REMARK    6  A    between atoms: _19  and  _20
REMARK    7  A    between atoms: _19  and  _22
REMARK    8  A    between atoms: _22  and  _23
REMARK    9  A    between atoms: _33  and  _35
REMARK   10  A    between atoms: _35  and  _36
REMARK   11  A    between atoms: _35  and  _38
REMARK   12  A    between atoms: _38  and  _39
REMARK   13  A    between atoms: _42  and  _44
REMARK   14  A    between atoms: _44  and  _45
REMARK   15  A    between atoms: _44  and  _47
REMARK   16  A    between atoms: _47  and  _48
REMARK   17  A    between atoms: _51  and  _53
REMARK   18  A    between atoms: _53  and  _54
REMARK   19  A    between atoms: _53  and  _56
REMARK   20  A    between atoms: _56  and  _57
REMARK   21  A    between atoms: _57  and  _58
REMARK   22  A    between atoms: _61  and  _63
REMARK   23  A    between atoms: _63  and  _64
REMARK   24  A    between atoms: _63  and  _66
REMARK   25  A    between atoms: _66  and  _67
REMARK   26  A    between atoms: _72  and  _74
REMARK   27  A    between atoms: _74  and  _75
REMARK   28  A    between atoms: _74  and  _77
REMARK   29  A    between atoms: _77  and  _78
REMARK   30  A    between atoms: _78  and  _79
REMARK   31  A    between atoms: _79  and  _80
REMARK   32  A    between atoms: _89  and  _91
REMARK   33  A    between atoms: _91  and  _92
REMARK   34  A    between atoms: _91  and  _94
REMARK   35  A    between atoms: _94  and  _95
REMARK   36  A    between atoms: _99  and  _100
REMARK   37  A    between atoms: _105  and  _107
REMARK   38  A    between atoms: _107  and  _108
REMARK   39  A    between atoms: _107  and  _110
REMARK   40  A    between atoms: _110  and  _111
REMARK   41  A    between atoms: _111  and  _112
REMARK   42  A    between atoms: _114  and  _116
REMARK   43  A    between atoms: _116  and  _117
REMARK   44  A    between atoms: _116  and  _119
REMARK   45  A    between atoms: _119  and  _120
REMARK   46  A    between atoms: _120  and  _121
REMARK   47  A    between atoms: _126  and  _128
REMARK   48  A    between atoms: _128  and  _129
REMARK   49  A    between atoms: _128  and  _131
REMARK   50  A    between atoms: _131  and  _132
REMARK   51  A    between atoms: _135  and  _137
REMARK   52  A    between atoms: _137  and  _138
REMARK   53  A    between atoms: _137  and  _140
REMARK   54  A    between atoms: _140  and  _141
REMARK   55  A    between atoms: _141  and  _142
REMARK   56  A    between atoms: _142  and  _143
REMARK   57  A    between atoms: _143  and  CO_319
REMARK   58  A    between atoms: _145  and  _147
REMARK   59  A    between atoms: _147  and  _148
REMARK   60  A    between atoms: _147  and  _150
REMARK   61  A    between atoms: _150  and  _151
REMARK   62  A    between atoms: _157  and  _159
REMARK   63  A    between atoms: _159  and  _160
REMARK   64  A    between atoms: _159  and  _162
REMARK   65  A    between atoms: _162  and  _163
REMARK   66  A    between atoms: _166  and  _168
REMARK   67  A    between atoms: _168  and  _169
REMARK   68  A    between atoms: _172  and  _173
REMARK   69  A    between atoms: _178  and  _180
REMARK   70  A    between atoms: _180  and  _181
REMARK   71  A    between atoms: _184  and  _186
REMARK   72  A    between atoms: _186  and  _187
REMARK   73  A    between atoms: _186  and  _189
REMARK   74  A    between atoms: _189  and  _190
REMARK   75  A    between atoms: _190  and  _192
REMARK   76  A    between atoms: _192  and  CO_319
REMARK   77  A    between atoms: _193  and  _195
REMARK   78  A    between atoms: _195  and  _196
REMARK   79  A    between atoms: _195  and  _198
REMARK   80  A    between atoms: _198  and  _199
REMARK   81  A    between atoms: _202  and  _204
REMARK   82  A    between atoms: _204  and  _205
REMARK   83  A    between atoms: _204  and  _207
REMARK   84  A    between atoms: _207  and  _208
REMARK   85  A    between atoms: _210  and  _212
REMARK   86  A    between atoms: _212  and  _213
REMARK   87  A    between atoms: _216  and  _218
REMARK   88  A    between atoms: _218  and  _219
REMARK   89  A    between atoms: _218  and  _221
REMARK   90  A    between atoms: _221  and  _222
REMARK   91  A    between atoms: _225  and  _227
REMARK   92  A    between atoms: _227  and  _228
REMARK   93  A    between atoms: _231  and  _232
REMARK   94  A    between atoms: _237  and  _239
REMARK   95  A    between atoms: _239  and  _240
REMARK   96  A    between atoms: _239  and  _242
REMARK   97  A    between atoms: _242  and  _243
REMARK   98  A    between atoms: _246  and  _248
REMARK   99  A    between atoms: _248  and  _249
REMARK  100  A    between atoms: _248  and  _251
REMARK  101  A    between atoms: _251  and  _252
REMARK  102  A    between atoms: _255  and  _257
REMARK  103  A    between atoms: _257  and  _258
REMARK  104  A    between atoms: _257  and  _260
REMARK  105  A    between atoms: _260  and  _261
REMARK  106  A    between atoms: _264  and  _266
REMARK  107  A    between atoms: _266  and  _267
REMARK  108  A    between atoms: _270  and  _272
REMARK  109  A    between atoms: _272  and  _273
REMARK  110  A    between atoms: _276  and  _278
REMARK  111  A    between atoms: _278  and  _279
REMARK  112  A    between atoms: _278  and  _281
REMARK  113  A    between atoms: _284  and  _286
REMARK  114  A    between atoms: _286  and  _287
REMARK  115  A    between atoms: _289  and  _291
REMARK  116  A    between atoms: _291  and  _292
REMARK  117  A    between atoms: _291  and  _294
REMARK  118  A    between atoms: _297  and  _299
REMARK  119  A    between atoms: _299  and  _300
REMARK  120  A    between atoms: _302  and  _304
REMARK  121  A    between atoms: _304  and  _305
REMARK  122  A    between atoms: _304  and  _307
REMARK  123  A    between atoms: _307  and  _308
REMARK  124  A    between atoms: _310  and  _312
REMARK  125  A    between atoms: _312  and  _313
REMARK  126  A    between atoms: _312  and  _315
REMARK  127  A    between atoms: _315  and  _316
REMARK                            x       y       z     vdW  Elec       q    Type
REMARK                         _______ _______ _______ _____ _____    ______ ____
ROOT
ATOM      1  O   HOH     1     -21.709 -12.341  15.223  0.00  0.00    +0.000 OA
ENDROOT
TORSDOF 0
REMARK  Name = ../refined-set-2016/4b5t/4b5t_pocket.pdb
REMARK  127 active torsions:
REMARK  status: ('A' for Active; 'I' for Inactive)
REMARK    1  A    between atoms: _1  and  _3
REMARK    2  A    between atoms: _3  and  _4
REMARK    3  A    between atoms: _3  and  _6
REMARK    4  A    between atoms: _6  and  _7
REMARK    5  A    between atoms: _17  and  _19
REMARK    6  A    between atoms: _19  and  _20
REMARK    7  A    between atoms: _19  and  _22
REMARK    8  A    between atoms: _22  and  _23
REMARK    9  A    between atoms: _33  and  _35
REMARK   10  A    between atoms: _35  and  _36
REMARK   11  A    between atoms: _35  and  _38
REMARK   12  A    between atoms: _38  and  _39
REMARK   13  A    between atoms: _42  and  _44
REMARK   14  A    between atoms: _44  and  _45
REMARK   15  A    between atoms: _44  and  _47
REMARK   16  A    between atoms: _47  and  _48
REMARK   17  A    between atoms: _51  and  _53
REMARK   18  A    between atoms: _53  and  _54
REMARK   19  A    between atoms: _53  and  _56
REMARK   20  A    between atoms: _56  and  _57
REMARK   21  A    between atoms: _57  and  _58
REMARK   22  A    between atoms: _61  and  _63
REMARK   23  A    between atoms: _63  and  _64
REMARK   24  A    between atoms: _63  and  _66
REMARK   25  A    between atoms: _66  and  _67
REMARK   26  A    between atoms: _72  and  _74
REMARK   27  A    between atoms: _74  and  _75
REMARK   28  A    between atoms: _74  and  _77
REMARK   29  A    between atoms: _77  and  _78
REMARK   30  A    between atoms: _78  and  _79
REMARK   31  A    between atoms: _79  and  _80
REMARK   32  A    between atoms: _89  and  _91
REMARK   33  A    between atoms: _91  and  _92
REMARK   34  A    between atoms: _91  and  _94
REMARK   35  A    between atoms: _94  and  _95
REMARK   36  A    between atoms: _99  and  _100
REMARK   37  A    between atoms: _105  and  _107
REMARK   38  A    between atoms: _107  and  _108
REMARK   39  A    between atoms: _107  and  _110
REMARK   40  A    between atoms: _110  and  _111
REMARK   41  A    between atoms: _111  and  _112
REMARK   42  A    between atoms: _114  and  _116
REMARK   43  A    between atoms: _116  and  _117
REMARK   44  A    between atoms: _116  and  _119
REMARK   45  A    between atoms: _119  and  _120
REMARK   46  A    between atoms: _120  and  _121
REMARK   47  A    between atoms: _126  and  _128
REMARK   48  A    between atoms: _128  and  _129
REMARK   49  A    between atoms: _128  and  _131
REMARK   50  A    between atoms: _131  and  _132
REMARK   51  A    between atoms: _135  and  _137
REMARK   52  A    between atoms: _137  and  _138
REMARK   53  A    between atoms: _137  and  _140
REMARK   54  A    between atoms: _140  and  _141
REMARK   55  A    between atoms: _141  and  _142
REMARK   56  A    between atoms: _142  and  _143
REMARK   57  A    between atoms: _143  and  CO_319
REMARK   58  A    between atoms: _145  and  _147
REMARK   59  A    between atoms: _147  and  _148
REMARK   60  A    between atoms: _147  and  _150
REMARK   61  A    between atoms: _150  and  _151
REMARK   62  A    between atoms: _157  and  _159
REMARK   63  A    between atoms: _159  and  _160
REMARK   64  A    between atoms: _159  and  _162
REMARK   65  A    between atoms: _162  and  _163
REMARK   66  A    between atoms: _166  and  _168
REMARK   67  A    between atoms: _168  and  _169
REMARK   68  A    between atoms: _172  and  _173
REMARK   69  A    between atoms: _178  and  _180
REMARK   70  A    between atoms: _180  and  _181
REMARK   71  A    between atoms: _184  and  _186
REMARK   72  A    between atoms: _186  and  _187
REMARK   73  A    between atoms: _186  and  _189
REMARK   74  A    between atoms: _189  and  _190
REMARK   75  A    between atoms: _190  and  _192
REMARK   76  A    between atoms: _192  and  CO_319
REMARK   77  A    between atoms: _193  and  _195
REMARK   78  A    between atoms: _195  and  _196
REMARK   79  A    between atoms: _195  and  _198
REMARK   80  A    between atoms: _198  and  _199
REMARK   81  A    between atoms: _202  and  _204
REMARK   82  A    between atoms: _204  and  _205
REMARK   83  A    between atoms: _204  and  _207
REMARK   84  A    between atoms: _207  and  _208
REMARK   85  A    between atoms: _210  and  _212
REMARK   86  A    between atoms: _212  and  _213
REMARK   87  A    between atoms: _216  and  _218
REMARK   88  A    between atoms: _218  and  _219
REMARK   89  A    between atoms: _218  and  _221
REMARK   90  A    between atoms: _221  and  _222
REMARK   91  A    between atoms: _225  and  _227
REMARK   92  A    between atoms: _227  and  _228
REMARK   93  A    between atoms: _231  and  _232
REMARK   94  A    between atoms: _237  and  _239
REMARK   95  A    between atoms: _239  and  _240
REMARK   96  A    between atoms: _239  and  _242
REMARK   97  A    between atoms: _242  and  _243
REMARK   98  A    between atoms: _246  and  _248
REMARK   99  A    between atoms: _248  and  _249
REMARK  100  A    between atoms: _248  and  _251
REMARK  101  A    between atoms: _251  and  _252
REMARK  102  A    between atoms: _255  and  _257
REMARK  103  A    between atoms: _257  and  _258
REMARK  104  A    between atoms: _257  and  _260
REMARK  105  A    between atoms: _260  and  _261
REMARK  106  A    between atoms: _264  and  _266
REMARK  107  A    between atoms: _266  and  _267
REMARK  108  A    between atoms: _270  and  _272
REMARK  109  A    between atoms: _272  and  _273
REMARK  110  A    between atoms: _276  and  _278
REMARK  111  A    between atoms: _278  and  _279
REMARK  112  A    between atoms: _278  and  _281
REMARK  113  A    between atoms: _284  and  _286
REMARK  114  A    between atoms: _286  and  _287
REMARK  115  A    between atoms: _289  and  _291
REMARK  116  A    between atoms: _291  and  _292
REMARK  117  A    between atoms: _291  and  _294
REMARK  118  A    between atoms: _297  and  _299
REMARK  119  A    between atoms: _299  and  _300
REMARK  120  A    between atoms: _302  and  _304
REMARK  121  A    between atoms: _304  and  _305
REMARK  122  A    between atoms: _304  and  _307
REMARK  123  A    between atoms: _307  and  _308
REMARK  124  A    between atoms: _310  and  _312
REMARK  125  A    between atoms: _312  and  _313
REMARK  126  A    between atoms: _312  and  _315
REMARK  127  A    between atoms: _315  and  _316
REMARK                            x       y       z     vdW  Elec       q    Type
REMARK                         _______ _______ _______ _____ _____    ______ ____
ROOT
ATOM      1  O   HOH     1     -24.323  -8.888  13.556  0.00  0.00    +0.000 OA
ENDROOT
TORSDOF 0
REMARK  Name = ../refined-set-2016/4b5t/4b5t_pocket.pdb
REMARK  127 active torsions:
REMARK  status: ('A' for Active; 'I' for Inactive)
REMARK    1  A    between atoms: _1  and  _3
REMARK    2  A    between atoms: _3  and  _4
REMARK    3  A    between atoms: _3  and  _6
REMARK    4  A    between atoms: _6  and  _7
REMARK    5  A    between atoms: _17  and  _19
REMARK    6  A    between atoms: _19  and  _20
REMARK    7  A    between atoms: _19  and  _22
REMARK    8  A    between atoms: _22  and  _23
REMARK    9  A    between atoms: _33  and  _35
REMARK   10  A    between atoms: _35  and  _36
REMARK   11  A    between atoms: _35  and  _38
REMARK   12  A    between atoms: _38  and  _39
REMARK   13  A    between atoms: _42  and  _44
REMARK   14  A    between atoms: _44  and  _45
REMARK   15  A    between atoms: _44  and  _47
REMARK   16  A    between atoms: _47  and  _48
REMARK   17  A    between atoms: _51  and  _53
REMARK   18  A    between atoms: _53  and  _54
REMARK   19  A    between atoms: _53  and  _56
REMARK   20  A    between atoms: _56  and  _57
REMARK   21  A    between atoms: _57  and  _58
REMARK   22  A    between atoms: _61  and  _63
REMARK   23  A    between atoms: _63  and  _64
REMARK   24  A    between atoms: _63  and  _66
REMARK   25  A    between atoms: _66  and  _67
REMARK   26  A    between atoms: _72  and  _74
REMARK   27  A    between atoms: _74  and  _75
REMARK   28  A    between atoms: _74  and  _77
REMARK   29  A    between atoms: _77  and  _78
REMARK   30  A    between atoms: _78  and  _79
REMARK   31  A    between atoms: _79  and  _80
REMARK   32  A    between atoms: _89  and  _91
REMARK   33  A    between atoms: _91  and  _92
REMARK   34  A    between atoms: _91  and  _94
REMARK   35  A    between atoms: _94  and  _95
REMARK   36  A    between atoms: _99  and  _100
REMARK   37  A    between atoms: _105  and  _107
REMARK   38  A    between atoms: _107  and  _108
REMARK   39  A    between atoms: _107  and  _110
REMARK   40  A    between atoms: _110  and  _111
REMARK   41  A    between atoms: _111  and  _112
REMARK   42  A    between atoms: _114  and  _116
REMARK   43  A    between atoms: _116  and  _117
REMARK   44  A    between atoms: _116  and  _119
REMARK   45  A    between atoms: _119  and  _120
REMARK   46  A    between atoms: _120  and  _121
REMARK   47  A    between atoms: _126  and  _128
REMARK   48  A    between atoms: _128  and  _129
REMARK   49  A    between atoms: _128  and  _131
REMARK   50  A    between atoms: _131  and  _132
REMARK   51  A    between atoms: _135  and  _137
REMARK   52  A    between atoms: _137  and  _138
REMARK   53  A    between atoms: _137  and  _140
REMARK   54  A    between atoms: _140  and  _141
REMARK   55  A    between atoms: _141  and  _142
REMARK   56  A    between atoms: _142  and  _143
REMARK   57  A    between atoms: _143  and  CO_319
REMARK   58  A    between atoms: _145  and  _147
REMARK   59  A    between atoms: _147  and  _148
REMARK   60  A    between atoms: _147  and  _150
REMARK   61  A    between atoms: _150  and  _151
REMARK   62  A    between atoms: _157  and  _159
REMARK   63  A    between atoms: _159  and  _160
REMARK   64  A    between atoms: _159  and  _162
REMARK   65  A    between atoms: _162  and  _163
REMARK   66  A    between atoms: _166  and  _168
REMARK   67  A    between atoms: _168  and  _169
REMARK   68  A    between atoms: _172  and  _173
REMARK   69  A    between atoms: _178  and  _180
REMARK   70  A    between atoms: _180  and  _181
REMARK   71  A    between atoms: _184  and  _186
REMARK   72  A    between atoms: _186  and  _187
REMARK   73  A    between atoms: _186  and  _189
REMARK   74  A    between atoms: _189  and  _190
REMARK   75  A    between atoms: _190  and  _192
REMARK   76  A    between atoms: _192  and  CO_319
REMARK   77  A    between atoms: _193  and  _195
REMARK   78  A    between atoms: _195  and  _196
REMARK   79  A    between atoms: _195  and  _198
REMARK   80  A    between atoms: _198  and  _199
REMARK   81  A    between atoms: _202  and  _204
REMARK   82  A    between atoms: _204  and  _205
REMARK   83  A    between atoms: _204  and  _207
REMARK   84  A    between atoms: _207  and  _208
REMARK   85  A    between atoms: _210  and  _212
REMARK   86  A    between atoms: _212  and  _213
REMARK   87  A    between atoms: _216  and  _218
REMARK   88  A    between atoms: _218  and  _219
REMARK   89  A    between atoms: _218  and  _221
REMARK   90  A    between atoms: _221  and  _222
REMARK   91  A    between atoms: _225  and  _227
REMARK   92  A    between atoms: _227  and  _228
REMARK   93  A    between atoms: _231  and  _232
REMARK   94  A    between atoms: _237  and  _239
REMARK   95  A    between atoms: _239  and  _240
REMARK   96  A    between atoms: _239  and  _242
REMARK   97  A    between atoms: _242  and  _243
REMARK   98  A    between atoms: _246  and  _248
REMARK   99  A    between atoms: _248  and  _249
REMARK  100  A    between atoms: _248  and  _251
REMARK  101  A    between atoms: _251  and  _252
REMARK  102  A    between atoms: _255  and  _257
REMARK  103  A    between atoms: _257  and  _258
REMARK  104  A    between atoms: _257  and  _260
REMARK  105  A    between atoms: _260  and  _261
REMARK  106  A    between atoms: _264  and  _266
REMARK  107  A    between atoms: _266  and  _267
REMARK  108  A    between atoms: _270  and  _272
REMARK  109  A    between atoms: _272  and  _273
REMARK  110  A    between atoms: _276  and  _278
REMARK  111  A    between atoms: _278  and  _279
REMARK  112  A    between atoms: _278  and  _281
REMARK  113  A    between atoms: _284  and  _286
REMARK  114  A    between atoms: _286  and  _287
REMARK  115  A    between atoms: _289  and  _291
REMARK  116  A    between atoms: _291  and  _292
REMARK  117  A    between atoms: _291  and  _294
REMARK  118  A    between atoms: _297  and  _299
REMARK  119  A    between atoms: _299  and  _300
REMARK  120  A    between atoms: _302  and  _304
REMARK  121  A    between atoms: _304  and  _305
REMARK  122  A    between atoms: _304  and  _307
REMARK  123  A    between atoms: _307  and  _308
REMARK  124  A    between atoms: _310  and  _312
REMARK  125  A    between atoms: _312  and  _313
REMARK  126  A    between atoms: _312  and  _315
REMARK  127  A    between atoms: _315  and  _316
REMARK                            x       y       z     vdW  Elec       q    Type
REMARK                         _______ _______ _______ _____ _____    ______ ____
ROOT
ATOM      1  O   HOH     1     -25.799 -10.984  13.107  0.00  0.00    +0.000 OA
ENDROOT
TORSDOF 0
REMARK  Name = ../refined-set-2016/4b5t/4b5t_pocket.pdb
REMARK  127 active torsions:
REMARK  status: ('A' for Active; 'I' for Inactive)
REMARK    1  A    between atoms: _1  and  _3
REMARK    2  A    between atoms: _3  and  _4
REMARK    3  A    between atoms: _3  and  _6
REMARK    4  A    between atoms: _6  and  _7
REMARK    5  A    between atoms: _17  and  _19
REMARK    6  A    between atoms: _19  and  _20
REMARK    7  A    between atoms: _19  and  _22
REMARK    8  A    between atoms: _22  and  _23
REMARK    9  A    between atoms: _33  and  _35
REMARK   10  A    between atoms: _35  and  _36
REMARK   11  A    between atoms: _35  and  _38
REMARK   12  A    between atoms: _38  and  _39
REMARK   13  A    between atoms: _42  and  _44
REMARK   14  A    between atoms: _44  and  _45
REMARK   15  A    between atoms: _44  and  _47
REMARK   16  A    between atoms: _47  and  _48
REMARK   17  A    between atoms: _51  and  _53
REMARK   18  A    between atoms: _53  and  _54
REMARK   19  A    between atoms: _53  and  _56
REMARK   20  A    between atoms: _56  and  _57
REMARK   21  A    between atoms: _57  and  _58
REMARK   22  A    between atoms: _61  and  _63
REMARK   23  A    between atoms: _63  and  _64
REMARK   24  A    between atoms: _63  and  _66
REMARK   25  A    between atoms: _66  and  _67
REMARK   26  A    between atoms: _72  and  _74
REMARK   27  A    between atoms: _74  and  _75
REMARK   28  A    between atoms: _74  and  _77
REMARK   29  A    between atoms: _77  and  _78
REMARK   30  A    between atoms: _78  and  _79
REMARK   31  A    between atoms: _79  and  _80
REMARK   32  A    between atoms: _89  and  _91
REMARK   33  A    between atoms: _91  and  _92
REMARK   34  A    between atoms: _91  and  _94
REMARK   35  A    between atoms: _94  and  _95
REMARK   36  A    between atoms: _99  and  _100
REMARK   37  A    between atoms: _105  and  _107
REMARK   38  A    between atoms: _107  and  _108
REMARK   39  A    between atoms: _107  and  _110
REMARK   40  A    between atoms: _110  and  _111
REMARK   41  A    between atoms: _111  and  _112
REMARK   42  A    between atoms: _114  and  _116
REMARK   43  A    between atoms: _116  and  _117
REMARK   44  A    between atoms: _116  and  _119
REMARK   45  A    between atoms: _119  and  _120
REMARK   46  A    between atoms: _120  and  _121
REMARK   47  A    between atoms: _126  and  _128
REMARK   48  A    between atoms: _128  and  _129
REMARK   49  A    between atoms: _128  and  _131
REMARK   50  A    between atoms: _131  and  _132
REMARK   51  A    between atoms: _135  and  _137
REMARK   52  A    between atoms: _137  and  _138
REMARK   53  A    between atoms: _137  and  _140
REMARK   54  A    between atoms: _140  and  _141
REMARK   55  A    between atoms: _141  and  _142
REMARK   56  A    between atoms: _142  and  _143
REMARK   57  A    between atoms: _143  and  CO_319
REMARK   58  A    between atoms: _145  and  _147
REMARK   59  A    between atoms: _147  and  _148
REMARK   60  A    between atoms: _147  and  _150
REMARK   61  A    between atoms: _150  and  _151
REMARK   62  A    between atoms: _157  and  _159
REMARK   63  A    between atoms: _159  and  _160
REMARK   64  A    between atoms: _159  and  _162
REMARK   65  A    between atoms: _162  and  _163
REMARK   66  A    between atoms: _166  and  _168
REMARK   67  A    between atoms: _168  and  _169
REMARK   68  A    between atoms: _172  and  _173
REMARK   69  A    between atoms: _178  and  _180
REMARK   70  A    between atoms: _180  and  _181
REMARK   71  A    between atoms: _184  and  _186
REMARK   72  A    between atoms: _186  and  _187
REMARK   73  A    between atoms: _186  and  _189
REMARK   74  A    between atoms: _189  and  _190
REMARK   75  A    between atoms: _190  and  _192
REMARK   76  A    between atoms: _192  and  CO_319
REMARK   77  A    between atoms: _193  and  _195
REMARK   78  A    between atoms: _195  and  _196
REMARK   79  A    between atoms: _195  and  _198
REMARK   80  A    between atoms: _198  and  _199
REMARK   81  A    between atoms: _202  and  _204
REMARK   82  A    between atoms: _204  and  _205
REMARK   83  A    between atoms: _204  and  _207
REMARK   84  A    between atoms: _207  and  _208
REMARK   85  A    between atoms: _210  and  _212
REMARK   86  A    between atoms: _212  and  _213
REMARK   87  A    between atoms: _216  and  _218
REMARK   88  A    between atoms: _218  and  _219
REMARK   89  A    between atoms: _218  and  _221
REMARK   90  A    between atoms: _221  and  _222
REMARK   91  A    between atoms: _225  and  _227
REMARK   92  A    between atoms: _227  and  _228
REMARK   93  A    between atoms: _231  and  _232
REMARK   94  A    between atoms: _237  and  _239
REMARK   95  A    between atoms: _239  and  _240
REMARK   96  A    between atoms: _239  and  _242
REMARK   97  A    between atoms: _242  and  _243
REMARK   98  A    between atoms: _246  and  _248
REMARK   99  A    between atoms: _248  and  _249
REMARK  100  A    between atoms: _248  and  _251
REMARK  101  A    between atoms: _251  and  _252
REMARK  102  A    between atoms: _255  and  _257
REMARK  103  A    between atoms: _257  and  _258
REMARK  104  A    between atoms: _257  and  _260
REMARK  105  A    between atoms: _260  and  _261
REMARK  106  A    between atoms: _264  and  _266
REMARK  107  A    between atoms: _266  and  _267
REMARK  108  A    between atoms: _270  and  _272
REMARK  109  A    between atoms: _272  and  _273
REMARK  110  A    between atoms: _276  and  _278
REMARK  111  A    between atoms: _278  and  _279
REMARK  112  A    between atoms: _278  and  _281
REMARK  113  A    between atoms: _284  and  _286
REMARK  114  A    between atoms: _286  and  _287
REMARK  115  A    between atoms: _289  and  _291
REMARK  116  A    between atoms: _291  and  _292
REMARK  117  A    between atoms: _291  and  _294
REMARK  118  A    between atoms: _297  and  _299
REMARK  119  A    between atoms: _299  and  _300
REMARK  120  A    between atoms: _302  and  _304
REMARK  121  A    between atoms: _304  and  _305
REMARK  122  A    between atoms: _304  and  _307
REMARK  123  A    between atoms: _307  and  _308
REMARK  124  A    between atoms: _310  and  _312
REMARK  125  A    between atoms: _312  and  _313
REMARK  126  A    between atoms: _312  and  _315
REMARK  127  A    between atoms: _315  and  _316
REMARK                            x       y       z     vdW  Elec       q    Type
REMARK                         _______ _______ _______ _____ _____    ______ ____
ROOT
ATOM      1  O   HOH     1     -22.001  -8.701  12.342  0.00  0.00    +0.000 OA
ENDROOT
TORSDOF 0
REMARK  Name = ../refined-set-2016/4b5t/4b5t_pocket.pdb
REMARK  127 active torsions:
REMARK  status: ('A' for Active; 'I' for Inactive)
REMARK    1  A    between atoms: _1  and  _3
REMARK    2  A    between atoms: _3  and  _4
REMARK    3  A    between atoms: _3  and  _6
REMARK    4  A    between atoms: _6  and  _7
REMARK    5  A    between atoms: _17  and  _19
REMARK    6  A    between atoms: _19  and  _20
REMARK    7  A    between atoms: _19  and  _22
REMARK    8  A    between atoms: _22  and  _23
REMARK    9  A    between atoms: _33  and  _35
REMARK   10  A    between atoms: _35  and  _36
REMARK   11  A    between atoms: _35  and  _38
REMARK   12  A    between atoms: _38  and  _39
REMARK   13  A    between atoms: _42  and  _44
REMARK   14  A    between atoms: _44  and  _45
REMARK   15  A    between atoms: _44  and  _47
REMARK   16  A    between atoms: _47  and  _48
REMARK   17  A    between atoms: _51  and  _53
REMARK   18  A    between atoms: _53  and  _54
REMARK   19  A    between atoms: _53  and  _56
REMARK   20  A    between atoms: _56  and  _57
REMARK   21  A    between atoms: _57  and  _58
REMARK   22  A    between atoms: _61  and  _63
REMARK   23  A    between atoms: _63  and  _64
REMARK   24  A    between atoms: _63  and  _66
REMARK   25  A    between atoms: _66  and  _67
REMARK   26  A    between atoms: _72  and  _74
REMARK   27  A    between atoms: _74  and  _75
REMARK   28  A    between atoms: _74  and  _77
REMARK   29  A    between atoms: _77  and  _78
REMARK   30  A    between atoms: _78  and  _79
REMARK   31  A    between atoms: _79  and  _80
REMARK   32  A    between atoms: _89  and  _91
REMARK   33  A    between atoms: _91  and  _92
REMARK   34  A    between atoms: _91  and  _94
REMARK   35  A    between atoms: _94  and  _95
REMARK   36  A    between atoms: _99  and  _100
REMARK   37  A    between atoms: _105  and  _107
REMARK   38  A    between atoms: _107  and  _108
REMARK   39  A    between atoms: _107  and  _110
REMARK   40  A    between atoms: _110  and  _111
REMARK   41  A    between atoms: _111  and  _112
REMARK   42  A    between atoms: _114  and  _116
REMARK   43  A    between atoms: _116  and  _117
REMARK   44  A    between atoms: _116  and  _119
REMARK   45  A    between atoms: _119  and  _120
REMARK   46  A    between atoms: _120  and  _121
REMARK   47  A    between atoms: _126  and  _128
REMARK   48  A    between atoms: _128  and  _129
REMARK   49  A    between atoms: _128  and  _131
REMARK   50  A    between atoms: _131  and  _132
REMARK   51  A    between atoms: _135  and  _137
REMARK   52  A    between atoms: _137  and  _138
REMARK   53  A    between atoms: _137  and  _140
REMARK   54  A    between atoms: _140  and  _141
REMARK   55  A    between atoms: _141  and  _142
REMARK   56  A    between atoms: _142  and  _143
REMARK   57  A    between atoms: _143  and  CO_319
REMARK   58  A    between atoms: _145  and  _147
REMARK   59  A    between atoms: _147  and  _148
REMARK   60  A    between atoms: _147  and  _150
REMARK   61  A    between atoms: _150  and  _151
REMARK   62  A    between atoms: _157  and  _159
REMARK   63  A    between atoms: _159  and  _160
REMARK   64  A    between atoms: _159  and  _162
REMARK   65  A    between atoms: _162  and  _163
REMARK   66  A    between atoms: _166  and  _168
REMARK   67  A    between atoms: _168  and  _169
REMARK   68  A    between atoms: _172  and  _173
REMARK   69  A    between atoms: _178  and  _180
REMARK   70  A    between atoms: _180  and  _181
REMARK   71  A    between atoms: _184  and  _186
REMARK   72  A    between atoms: _186  and  _187
REMARK   73  A    between atoms: _186  and  _189
REMARK   74  A    between atoms: _189  and  _190
REMARK   75  A    between atoms: _190  and  _192
REMARK   76  A    between atoms: _192  and  CO_319
REMARK   77  A    between atoms: _193  and  _195
REMARK   78  A    between atoms: _195  and  _196
REMARK   79  A    between atoms: _195  and  _198
REMARK   80  A    between atoms: _198  and  _199
REMARK   81  A    between atoms: _202  and  _204
REMARK   82  A    between atoms: _204  and  _205
REMARK   83  A    between atoms: _204  and  _207
REMARK   84  A    between atoms: _207  and  _208
REMARK   85  A    between atoms: _210  and  _212
REMARK   86  A    between atoms: _212  and  _213
REMARK   87  A    between atoms: _216  and  _218
REMARK   88  A    between atoms: _218  and  _219
REMARK   89  A    between atoms: _218  and  _221
REMARK   90  A    between atoms: _221  and  _222
REMARK   91  A    between atoms: _225  and  _227
REMARK   92  A    between atoms: _227  and  _228
REMARK   93  A    between atoms: _231  and  _232
REMARK   94  A    between atoms: _237  and  _239
REMARK   95  A    between atoms: _239  and  _240
REMARK   96  A    between atoms: _239  and  _242
REMARK   97  A    between atoms: _242  and  _243
REMARK   98  A    between atoms: _246  and  _248
REMARK   99  A    between atoms: _248  and  _249
REMARK  100  A    between atoms: _248  and  _251
REMARK  101  A    between atoms: _251  and  _252
REMARK  102  A    between atoms: _255  and  _257
REMARK  103  A    between atoms: _257  and  _258
REMARK  104  A    between atoms: _257  and  _260
REMARK  105  A    between atoms: _260  and  _261
REMARK  106  A    between atoms: _264  and  _266
REMARK  107  A    between atoms: _266  and  _267
REMARK  108  A    between atoms: _270  and  _272
REMARK  109  A    between atoms: _272  and  _273
REMARK  110  A    between atoms: _276  and  _278
REMARK  111  A    between atoms: _278  and  _279
REMARK  112  A    between atoms: _278  and  _281
REMARK  113  A    between atoms: _284  and  _286
REMARK  114  A    between atoms: _286  and  _287
REMARK  115  A    between atoms: _289  and  _291
REMARK  116  A    between atoms: _291  and  _292
REMARK  117  A    between atoms: _291  and  _294
REMARK  118  A    between atoms: _297  and  _299
REMARK  119  A    between atoms: _299  and  _300
REMARK  120  A    between atoms: _302  and  _304
REMARK  121  A    between atoms: _304  and  _305
REMARK  122  A    between atoms: _304  and  _307
REMARK  123  A    between atoms: _307  and  _308
REMARK  124  A    between atoms: _310  and  _312
REMARK  125  A    between atoms: _312  and  _313
REMARK  126  A    between atoms: _312  and  _315
REMARK  127  A    between atoms: _315  and  _316
REMARK                            x       y       z     vdW  Elec       q    Type
REMARK                         _______ _______ _______ _____ _____    ______ ____
ROOT
ATOM      1  O   HOH     1     -20.665 -13.673  11.697  0.00  0.00    +0.000 OA
ENDROOT
TORSDOF 0
