REMARK  Name = ../refined-set-2016/1y6r/1y6r_pocket.pdb
REMARK  214 active torsions:
REMARK  status: ('A' for Active; 'I' for Inactive)
REMARK    1  A    between atoms: _1  and  _3
REMARK    2  A    between atoms: _3  and  _4
REMARK    3  A    between atoms: _6  and  _8
REMARK    4  A    between atoms: _8  and  _9
REMARK    5  A    between atoms: _12  and  _14
REMARK    6  A    between atoms: _14  and  _15
REMARK    7  A    between atoms: _14  and  _17
REMARK    8  A    between atoms: _17  and  _18
REMARK    9  A    between atoms: _18  and  _19
REMARK   10  A    between atoms: _21  and  _23
REMARK   11  A    between atoms: _23  and  _24
REMARK   12  A    between atoms: _23  and  _26
REMARK   13  A    between atoms: _26  and  _27
REMARK   14  A    between atoms: _27  and  _28
REMARK   15  A    between atoms: _31  and  _33
REMARK   16  A    between atoms: _33  and  _34
REMARK   17  A    between atoms: _33  and  _36
REMARK   18  A    between atoms: _36  and  _37
REMARK   19  A    between atoms: _39  and  _41
REMARK   20  A    between atoms: _41  and  _42
REMARK   21  A    between atoms: _44  and  _46
REMARK   22  A    between atoms: _46  and  _47
REMARK   23  A    between atoms: _46  and  _49
REMARK   24  A    between atoms: _49  and  _50
REMARK   25  A    between atoms: _53  and  _55
REMARK   26  A    between atoms: _55  and  _56
REMARK   27  A    between atoms: _58  and  _60
REMARK   28  A    between atoms: _60  and  _61
REMARK   29  A    between atoms: _60  and  _63
REMARK   30  A    between atoms: _63  and  _64
REMARK   31  A    between atoms: _64  and  _65
REMARK   32  A    between atoms: _65  and  _66
REMARK   33  A    between atoms: _66  and  _67
REMARK   34  A    between atoms: _71  and  _73
REMARK   35  A    between atoms: _73  and  _74
REMARK   36  A    between atoms: _77  and  _79
REMARK   37  A    between atoms: _79  and  _80
REMARK   38  A    between atoms: _83  and  _85
REMARK   39  A    between atoms: _85  and  _86
REMARK   40  A    between atoms: _85  and  _88
REMARK   41  A    between atoms: _88  and  _89
REMARK   42  A    between atoms: _94  and  _96
REMARK   43  A    between atoms: _96  and  _97
REMARK   44  A    between atoms: _96  and  _99
REMARK   45  A    between atoms: _99  and  _100
REMARK   46  A    between atoms: _103  and  _105
REMARK   47  A    between atoms: _105  and  _106
REMARK   48  A    between atoms: _108  and  _110
REMARK   49  A    between atoms: _110  and  _111
REMARK   50  A    between atoms: _110  and  _113
REMARK   51  A    between atoms: _113  and  _114
REMARK   52  A    between atoms: _116  and  _118
REMARK   53  A    between atoms: _118  and  _119
REMARK   54  A    between atoms: _122  and  _124
REMARK   55  A    between atoms: _124  and  _125
REMARK   56  A    between atoms: _127  and  _129
REMARK   57  A    between atoms: _129  and  _130
REMARK   58  A    between atoms: _132  and  _134
REMARK   59  A    between atoms: _134  and  _135
REMARK   60  A    between atoms: _134  and  _137
REMARK   61  A    between atoms: _137  and  _138
REMARK   62  A    between atoms: _141  and  _143
REMARK   63  A    between atoms: _143  and  _144
REMARK   64  A    between atoms: _143  and  _146
REMARK   65  A    between atoms: _146  and  _147
REMARK   66  A    between atoms: _152  and  _154
REMARK   67  A    between atoms: _154  and  _155
REMARK   68  A    between atoms: _154  and  _157
REMARK   69  A    between atoms: _157  and  _158
REMARK   70  A    between atoms: _161  and  _163
REMARK   71  A    between atoms: _163  and  _164
REMARK   72  A    between atoms: _163  and  _166
REMARK   73  A    between atoms: _169  and  _171
REMARK   74  A    between atoms: _171  and  _172
REMARK   75  A    between atoms: _171  and  _174
REMARK   76  A    between atoms: _174  and  _175
REMARK   77  A    between atoms: _177  and  _179
REMARK   78  A    between atoms: _179  and  _180
REMARK   79  A    between atoms: _182  and  _184
REMARK   80  A    between atoms: _184  and  _185
REMARK   81  A    between atoms: _184  and  _187
REMARK   82  A    between atoms: _187  and  _188
REMARK   83  A    between atoms: _191  and  _193
REMARK   84  A    between atoms: _193  and  _194
REMARK   85  A    between atoms: _197  and  _199
REMARK   86  A    between atoms: _199  and  _200
REMARK   87  A    between atoms: _199  and  _202
REMARK   88  A    between atoms: _202  and  _203
REMARK   89  A    between atoms: _209  and  _211
REMARK   90  A    between atoms: _211  and  _212
REMARK   91  A    between atoms: _211  and  _214
REMARK   92  A    between atoms: _214  and  _215
REMARK   93  A    between atoms: _218  and  _220
REMARK   94  A    between atoms: _220  and  _221
REMARK   95  A    between atoms: _220  and  _223
REMARK   96  A    between atoms: _223  and  _224
REMARK   97  A    between atoms: _229  and  _231
REMARK   98  A    between atoms: _231  and  _232
REMARK   99  A    between atoms: _234  and  _236
REMARK  100  A    between atoms: _236  and  _237
REMARK  101  A    between atoms: _236  and  _239
REMARK  102  A    between atoms: _239  and  _240
REMARK  103  A    between atoms: _243  and  _245
REMARK  104  A    between atoms: _245  and  _246
REMARK  105  A    between atoms: _245  and  _248
REMARK  106  A    between atoms: _248  and  _249
REMARK  107  A    between atoms: _252  and  _254
REMARK  108  A    between atoms: _254  and  _255
REMARK  109  A    between atoms: _258  and  _260
REMARK  110  A    between atoms: _260  and  _261
REMARK  111  A    between atoms: _260  and  _263
REMARK  112  A    between atoms: _266  and  _268
REMARK  113  A    between atoms: _268  and  _269
REMARK  114  A    between atoms: _268  and  _271
REMARK  115  A    between atoms: _271  and  _272
REMARK  116  A    between atoms: _272  and  _273
REMARK  117  A    between atoms: _276  and  _278
REMARK  118  A    between atoms: _278  and  _279
REMARK  119  A    between atoms: _278  and  _281
REMARK  120  A    between atoms: _281  and  _282
REMARK  121  A    between atoms: _282  and  _283
REMARK  122  A    between atoms: _285  and  _287
REMARK  123  A    between atoms: _287  and  _288
REMARK  124  A    between atoms: _287  and  _290
REMARK  125  A    between atoms: _290  and  _291
REMARK  126  A    between atoms: _291  and  _292
REMARK  127  A    between atoms: _295  and  _297
REMARK  128  A    between atoms: _297  and  _298
REMARK  129  A    between atoms: _301  and  _303
REMARK  130  A    between atoms: _303  and  _304
REMARK  131  A    between atoms: _303  and  _306
REMARK  132  A    between atoms: _306  and  _307
REMARK  133  A    between atoms: _310  and  _312
REMARK  134  A    between atoms: _312  and  _313
REMARK  135  A    between atoms: _312  and  _315
REMARK  136  A    between atoms: _315  and  _316
REMARK  137  A    between atoms: _319  and  _321
REMARK  138  A    between atoms: _321  and  _322
REMARK  139  A    between atoms: _321  and  _324
REMARK  140  A    between atoms: _324  and  _325
REMARK  141  A    between atoms: _325  and  _326
REMARK  142  A    between atoms: _326  and  _327
REMARK  143  A    between atoms: _336  and  _338
REMARK  144  A    between atoms: _338  and  _339
REMARK  145  A    between atoms: _342  and  _344
REMARK  146  A    between atoms: _344  and  _345
REMARK  147  A    between atoms: _344  and  _347
REMARK  148  A    between atoms: _347  and  _348
REMARK  149  A    between atoms: _351  and  _353
REMARK  150  A    between atoms: _353  and  _354
REMARK  151  A    between atoms: _353  and  _356
REMARK  152  A    between atoms: _356  and  _357
REMARK  153  A    between atoms: _359  and  _361
REMARK  154  A    between atoms: _361  and  _362
REMARK  155  A    between atoms: _361  and  _364
REMARK  156  A    between atoms: _364  and  _365
REMARK  157  A    between atoms: _368  and  _370
REMARK  158  A    between atoms: _370  and  _371
REMARK  159  A    between atoms: _370  and  _373
REMARK  160  A    between atoms: _376  and  _378
REMARK  161  A    between atoms: _378  and  _379
REMARK  162  A    between atoms: _382  and  _384
REMARK  163  A    between atoms: _384  and  _385
REMARK  164  A    between atoms: _384  and  _387
REMARK  165  A    between atoms: _387  and  _388
REMARK  166  A    between atoms: _391  and  _393
REMARK  167  A    between atoms: _393  and  _394
REMARK  168  A    between atoms: _393  and  _396
REMARK  169  A    between atoms: _396  and  _397
REMARK  170  A    between atoms: _399  and  _401
REMARK  171  A    between atoms: _401  and  _402
REMARK  172  A    between atoms: _401  and  _404
REMARK  173  A    between atoms: _404  and  _405
REMARK  174  A    between atoms: _410  and  _412
REMARK  175  A    between atoms: _412  and  _413
REMARK  176  A    between atoms: _412  and  _415
REMARK  177  A    between atoms: _415  and  _416
REMARK  178  A    between atoms: _418  and  _420
REMARK  179  A    between atoms: _420  and  _421
REMARK  180  A    between atoms: _420  and  _423
REMARK  181  A    between atoms: _423  and  _424
REMARK  182  A    between atoms: _430  and  _432
REMARK  183  A    between atoms: _432  and  _433
REMARK  184  A    between atoms: _432  and  _435
REMARK  185  A    between atoms: _435  and  _436
REMARK  186  A    between atoms: _439  and  _441
REMARK  187  A    between atoms: _441  and  _442
REMARK  188  A    between atoms: _441  and  _444
REMARK  189  A    between atoms: _444  and  _445
REMARK  190  A    between atoms: _448  and  _450
REMARK  191  A    between atoms: _450  and  _451
REMARK  192  A    between atoms: _454  and  _456
REMARK  193  A    between atoms: _456  and  _457
REMARK  194  A    between atoms: _456  and  _459
REMARK  195  A    between atoms: _459  and  _460
REMARK  196  A    between atoms: _463  and  _465
REMARK  197  A    between atoms: _465  and  _466
REMARK  198  A    between atoms: _465  and  _468
REMARK  199  A    between atoms: _471  and  _473
REMARK  200  A    between atoms: _473  and  _474
REMARK  201  A    between atoms: _477  and  _479
REMARK  202  A    between atoms: _479  and  _480
REMARK  203  A    between atoms: _479  and  _482
REMARK  204  A    between atoms: _482  and  _483
REMARK  205  A    between atoms: _489  and  _491
REMARK  206  A    between atoms: _491  and  _492
REMARK  207  A    between atoms: _491  and  _494
REMARK  208  A    between atoms: _494  and  _495
REMARK  209  A    between atoms: _500  and  _501
REMARK  210  A    between atoms: _503  and  _505
REMARK  211  A    between atoms: _505  and  _506
REMARK  212  A    between atoms: _505  and  _508
REMARK  213  A    between atoms: _508  and  _509
REMARK  214  A    between atoms: _513  and  _514
REMARK                            x       y       z     vdW  Elec       q    Type
REMARK                         _______ _______ _______ _____ _____    ______ ____
ROOT
ATOM      1  C   ALA A   2      64.120  71.043  25.629  0.00  0.00    +0.241 C 
ATOM      2  O   ALA A   2      64.257  70.419  26.677  0.00  0.00    -0.273 OA
ATOM      3  N   MET A   3      64.067  70.443  24.439  0.00  0.00    -0.298 N 
ATOM      4  H   MET A   3      63.990  71.027  23.582  0.00  0.00    +0.150 HD
ENDROOT
BRANCH   1   5
ATOM      5  CA  ALA A   2      64.018  72.587  25.658  0.00  0.00    +0.149 C 
ATOM      6  CB  ALA A   2      62.595  73.007  25.279  0.00  0.00    +0.031 C 
BRANCH   5   9
ATOM      7  C   GLY A   1      66.274  73.386  25.120  0.00  0.00    +0.240 C 
ATOM      8  O   GLY A   1      66.735  72.949  26.170  0.00  0.00    -0.274 OA
ATOM      9  N   ALA A   2      64.988  73.271  24.791  0.00  0.00    -0.297 N 
ATOM     10  H   ALA A   2      64.660  73.678  23.892  0.00  0.00    +0.150 HD
BRANCH   7  11
ATOM     11  CA  GLY A   1      67.188  74.109  24.147  0.00  0.00    +0.169 C 
BRANCH  11  12
ATOM     12  N   GLY A   1      68.119  74.887  24.939  0.00  0.00    -0.236 NA
ATOM     13  H   GLY A   1      68.696  74.412  25.662  0.00  0.00    +0.142 HD
ENDBRANCH  11  12
ENDBRANCH   7  11
ENDBRANCH   5   9
ENDBRANCH   1   5
BRANCH   3  14
ATOM     14  CA  MET A   3      64.114  68.976  24.303  0.00  0.00    +0.138 C 
BRANCH  14  15
ATOM     15  C   MET A   3      65.495  68.396  23.968  0.00  0.00    +0.227 C 
ATOM     16  O   MET A   3      66.365  69.095  23.449  0.00  0.00    -0.286 OA
ENDBRANCH  14  15
BRANCH  14  17
ATOM     17  CB  MET A   3      63.118  68.521  23.220  0.00  0.00    +0.039 C 
BRANCH  17  18
ATOM     18  CG  MET A   3      61.685  69.048  23.420  0.00  0.00    +0.060 C 
BRANCH  18  19
ATOM     19  SD  MET A   3      60.641  68.786  21.972  0.00  0.00    -0.139 S 
ATOM     20  CE  MET A   3      60.593  66.995  21.939  0.00  0.00    +0.069 C 
ENDBRANCH  18  19
ENDBRANCH  17  18
ENDBRANCH  14  17
ENDBRANCH   3  14
TORSDOF 9
REMARK  Name = ../refined-set-2016/1y6r/1y6r_pocket.pdb
REMARK  214 active torsions:
REMARK  status: ('A' for Active; 'I' for Inactive)
REMARK    1  A    between atoms: _1  and  _3
REMARK    2  A    between atoms: _3  and  _4
REMARK    3  A    between atoms: _6  and  _8
REMARK    4  A    between atoms: _8  and  _9
REMARK    5  A    between atoms: _12  and  _14
REMARK    6  A    between atoms: _14  and  _15
REMARK    7  A    between atoms: _14  and  _17
REMARK    8  A    between atoms: _17  and  _18
REMARK    9  A    between atoms: _18  and  _19
REMARK   10  A    between atoms: _21  and  _23
REMARK   11  A    between atoms: _23  and  _24
REMARK   12  A    between atoms: _23  and  _26
REMARK   13  A    between atoms: _26  and  _27
REMARK   14  A    between atoms: _27  and  _28
REMARK   15  A    between atoms: _31  and  _33
REMARK   16  A    between atoms: _33  and  _34
REMARK   17  A    between atoms: _33  and  _36
REMARK   18  A    between atoms: _36  and  _37
REMARK   19  A    between atoms: _39  and  _41
REMARK   20  A    between atoms: _41  and  _42
REMARK   21  A    between atoms: _44  and  _46
REMARK   22  A    between atoms: _46  and  _47
REMARK   23  A    between atoms: _46  and  _49
REMARK   24  A    between atoms: _49  and  _50
REMARK   25  A    between atoms: _53  and  _55
REMARK   26  A    between atoms: _55  and  _56
REMARK   27  A    between atoms: _58  and  _60
REMARK   28  A    between atoms: _60  and  _61
REMARK   29  A    between atoms: _60  and  _63
REMARK   30  A    between atoms: _63  and  _64
REMARK   31  A    between atoms: _64  and  _65
REMARK   32  A    between atoms: _65  and  _66
REMARK   33  A    between atoms: _66  and  _67
REMARK   34  A    between atoms: _71  and  _73
REMARK   35  A    between atoms: _73  and  _74
REMARK   36  A    between atoms: _77  and  _79
REMARK   37  A    between atoms: _79  and  _80
REMARK   38  A    between atoms: _83  and  _85
REMARK   39  A    between atoms: _85  and  _86
REMARK   40  A    between atoms: _85  and  _88
REMARK   41  A    between atoms: _88  and  _89
REMARK   42  A    between atoms: _94  and  _96
REMARK   43  A    between atoms: _96  and  _97
REMARK   44  A    between atoms: _96  and  _99
REMARK   45  A    between atoms: _99  and  _100
REMARK   46  A    between atoms: _103  and  _105
REMARK   47  A    between atoms: _105  and  _106
REMARK   48  A    between atoms: _108  and  _110
REMARK   49  A    between atoms: _110  and  _111
REMARK   50  A    between atoms: _110  and  _113
REMARK   51  A    between atoms: _113  and  _114
REMARK   52  A    between atoms: _116  and  _118
REMARK   53  A    between atoms: _118  and  _119
REMARK   54  A    between atoms: _122  and  _124
REMARK   55  A    between atoms: _124  and  _125
REMARK   56  A    between atoms: _127  and  _129
REMARK   57  A    between atoms: _129  and  _130
REMARK   58  A    between atoms: _132  and  _134
REMARK   59  A    between atoms: _134  and  _135
REMARK   60  A    between atoms: _134  and  _137
REMARK   61  A    between atoms: _137  and  _138
REMARK   62  A    between atoms: _141  and  _143
REMARK   63  A    between atoms: _143  and  _144
REMARK   64  A    between atoms: _143  and  _146
REMARK   65  A    between atoms: _146  and  _147
REMARK   66  A    between atoms: _152  and  _154
REMARK   67  A    between atoms: _154  and  _155
REMARK   68  A    between atoms: _154  and  _157
REMARK   69  A    between atoms: _157  and  _158
REMARK   70  A    between atoms: _161  and  _163
REMARK   71  A    between atoms: _163  and  _164
REMARK   72  A    between atoms: _163  and  _166
REMARK   73  A    between atoms: _169  and  _171
REMARK   74  A    between atoms: _171  and  _172
REMARK   75  A    between atoms: _171  and  _174
REMARK   76  A    between atoms: _174  and  _175
REMARK   77  A    between atoms: _177  and  _179
REMARK   78  A    between atoms: _179  and  _180
REMARK   79  A    between atoms: _182  and  _184
REMARK   80  A    between atoms: _184  and  _185
REMARK   81  A    between atoms: _184  and  _187
REMARK   82  A    between atoms: _187  and  _188
REMARK   83  A    between atoms: _191  and  _193
REMARK   84  A    between atoms: _193  and  _194
REMARK   85  A    between atoms: _197  and  _199
REMARK   86  A    between atoms: _199  and  _200
REMARK   87  A    between atoms: _199  and  _202
REMARK   88  A    between atoms: _202  and  _203
REMARK   89  A    between atoms: _209  and  _211
REMARK   90  A    between atoms: _211  and  _212
REMARK   91  A    between atoms: _211  and  _214
REMARK   92  A    between atoms: _214  and  _215
REMARK   93  A    between atoms: _218  and  _220
REMARK   94  A    between atoms: _220  and  _221
REMARK   95  A    between atoms: _220  and  _223
REMARK   96  A    between atoms: _223  and  _224
REMARK   97  A    between atoms: _229  and  _231
REMARK   98  A    between atoms: _231  and  _232
REMARK   99  A    between atoms: _234  and  _236
REMARK  100  A    between atoms: _236  and  _237
REMARK  101  A    between atoms: _236  and  _239
REMARK  102  A    between atoms: _239  and  _240
REMARK  103  A    between atoms: _243  and  _245
REMARK  104  A    between atoms: _245  and  _246
REMARK  105  A    between atoms: _245  and  _248
REMARK  106  A    between atoms: _248  and  _249
REMARK  107  A    between atoms: _252  and  _254
REMARK  108  A    between atoms: _254  and  _255
REMARK  109  A    between atoms: _258  and  _260
REMARK  110  A    between atoms: _260  and  _261
REMARK  111  A    between atoms: _260  and  _263
REMARK  112  A    between atoms: _266  and  _268
REMARK  113  A    between atoms: _268  and  _269
REMARK  114  A    between atoms: _268  and  _271
REMARK  115  A    between atoms: _271  and  _272
REMARK  116  A    between atoms: _272  and  _273
REMARK  117  A    between atoms: _276  and  _278
REMARK  118  A    between atoms: _278  and  _279
REMARK  119  A    between atoms: _278  and  _281
REMARK  120  A    between atoms: _281  and  _282
REMARK  121  A    between atoms: _282  and  _283
REMARK  122  A    between atoms: _285  and  _287
REMARK  123  A    between atoms: _287  and  _288
REMARK  124  A    between atoms: _287  and  _290
REMARK  125  A    between atoms: _290  and  _291
REMARK  126  A    between atoms: _291  and  _292
REMARK  127  A    between atoms: _295  and  _297
REMARK  128  A    between atoms: _297  and  _298
REMARK  129  A    between atoms: _301  and  _303
REMARK  130  A    between atoms: _303  and  _304
REMARK  131  A    between atoms: _303  and  _306
REMARK  132  A    between atoms: _306  and  _307
REMARK  133  A    between atoms: _310  and  _312
REMARK  134  A    between atoms: _312  and  _313
REMARK  135  A    between atoms: _312  and  _315
REMARK  136  A    between atoms: _315  and  _316
REMARK  137  A    between atoms: _319  and  _321
REMARK  138  A    between atoms: _321  and  _322
REMARK  139  A    between atoms: _321  and  _324
REMARK  140  A    between atoms: _324  and  _325
REMARK  141  A    between atoms: _325  and  _326
REMARK  142  A    between atoms: _326  and  _327
REMARK  143  A    between atoms: _336  and  _338
REMARK  144  A    between atoms: _338  and  _339
REMARK  145  A    between atoms: _342  and  _344
REMARK  146  A    between atoms: _344  and  _345
REMARK  147  A    between atoms: _344  and  _347
REMARK  148  A    between atoms: _347  and  _348
REMARK  149  A    between atoms: _351  and  _353
REMARK  150  A    between atoms: _353  and  _354
REMARK  151  A    between atoms: _353  and  _356
REMARK  152  A    between atoms: _356  and  _357
REMARK  153  A    between atoms: _359  and  _361
REMARK  154  A    between atoms: _361  and  _362
REMARK  155  A    between atoms: _361  and  _364
REMARK  156  A    between atoms: _364  and  _365
REMARK  157  A    between atoms: _368  and  _370
REMARK  158  A    between atoms: _370  and  _371
REMARK  159  A    between atoms: _370  and  _373
REMARK  160  A    between atoms: _376  and  _378
REMARK  161  A    between atoms: _378  and  _379
REMARK  162  A    between atoms: _382  and  _384
REMARK  163  A    between atoms: _384  and  _385
REMARK  164  A    between atoms: _384  and  _387
REMARK  165  A    between atoms: _387  and  _388
REMARK  166  A    between atoms: _391  and  _393
REMARK  167  A    between atoms: _393  and  _394
REMARK  168  A    between atoms: _393  and  _396
REMARK  169  A    between atoms: _396  and  _397
REMARK  170  A    between atoms: _399  and  _401
REMARK  171  A    between atoms: _401  and  _402
REMARK  172  A    between atoms: _401  and  _404
REMARK  173  A    between atoms: _404  and  _405
REMARK  174  A    between atoms: _410  and  _412
REMARK  175  A    between atoms: _412  and  _413
REMARK  176  A    between atoms: _412  and  _415
REMARK  177  A    between atoms: _415  and  _416
REMARK  178  A    between atoms: _418  and  _420
REMARK  179  A    between atoms: _420  and  _421
REMARK  180  A    between atoms: _420  and  _423
REMARK  181  A    between atoms: _423  and  _424
REMARK  182  A    between atoms: _430  and  _432
REMARK  183  A    between atoms: _432  and  _433
REMARK  184  A    between atoms: _432  and  _435
REMARK  185  A    between atoms: _435  and  _436
REMARK  186  A    between atoms: _439  and  _441
REMARK  187  A    between atoms: _441  and  _442
REMARK  188  A    between atoms: _441  and  _444
REMARK  189  A    between atoms: _444  and  _445
REMARK  190  A    between atoms: _448  and  _450
REMARK  191  A    between atoms: _450  and  _451
REMARK  192  A    between atoms: _454  and  _456
REMARK  193  A    between atoms: _456  and  _457
REMARK  194  A    between atoms: _456  and  _459
REMARK  195  A    between atoms: _459  and  _460
REMARK  196  A    between atoms: _463  and  _465
REMARK  197  A    between atoms: _465  and  _466
REMARK  198  A    between atoms: _465  and  _468
REMARK  199  A    between atoms: _471  and  _473
REMARK  200  A    between atoms: _473  and  _474
REMARK  201  A    between atoms: _477  and  _479
REMARK  202  A    between atoms: _479  and  _480
REMARK  203  A    between atoms: _479  and  _482
REMARK  204  A    between atoms: _482  and  _483
REMARK  205  A    between atoms: _489  and  _491
REMARK  206  A    between atoms: _491  and  _492
REMARK  207  A    between atoms: _491  and  _494
REMARK  208  A    between atoms: _494  and  _495
REMARK  209  A    between atoms: _500  and  _501
REMARK  210  A    between atoms: _503  and  _505
REMARK  211  A    between atoms: _505  and  _506
REMARK  212  A    between atoms: _505  and  _508
REMARK  213  A    between atoms: _508  and  _509
REMARK  214  A    between atoms: _513  and  _514
REMARK                            x       y       z     vdW  Elec       q    Type
REMARK                         _______ _______ _______ _____ _____    ______ ____
ROOT
ATOM      1  CA  GLU A   1      66.903  69.997  20.020  0.00  0.00    +0.134 C 
ENDROOT
BRANCH   1   2
ATOM      2  N   GLU A   1      66.506  68.644  20.387  0.00  0.00    -0.239 NA
ATOM      3  H   GLU A   1      65.842  68.502  21.175  0.00  0.00    +0.142 HD
ENDBRANCH   1   2
BRANCH   1   4
ATOM      4  C   GLU A   1      68.301  70.428  20.440  0.00  0.00    +0.224 C 
ATOM      5  O   GLU A   1      68.816  71.403  19.903  0.00  0.00    -0.287 OA
ENDBRANCH   1   4
BRANCH   1   6
ATOM      6  CB  GLU A   1      65.887  70.989  20.570  0.00  0.00    +0.037 C 
BRANCH   6   7
ATOM      7  CG  GLU A   1      64.478  70.847  19.983  0.00  0.00    +0.116 C 
BRANCH   7   8
ATOM      8  CD  GLU A   1      63.466  71.693  20.743  0.00  0.00    +0.365 C 
ATOM      9  OE2 GLU A   1      63.650  71.878  21.966  0.00  0.00    -0.246 OA
ATOM     10  OE1 GLU A   1      62.495  72.164  20.126  0.00  0.00    -0.246 OA
ENDBRANCH   7   8
ENDBRANCH   6   7
ENDBRANCH   1   6
TORSDOF 5
REMARK  Name = ../refined-set-2016/1y6r/1y6r_pocket.pdb
REMARK  214 active torsions:
REMARK  status: ('A' for Active; 'I' for Inactive)
REMARK    1  A    between atoms: _1  and  _3
REMARK    2  A    between atoms: _3  and  _4
REMARK    3  A    between atoms: _6  and  _8
REMARK    4  A    between atoms: _8  and  _9
REMARK    5  A    between atoms: _12  and  _14
REMARK    6  A    between atoms: _14  and  _15
REMARK    7  A    between atoms: _14  and  _17
REMARK    8  A    between atoms: _17  and  _18
REMARK    9  A    between atoms: _18  and  _19
REMARK   10  A    between atoms: _21  and  _23
REMARK   11  A    between atoms: _23  and  _24
REMARK   12  A    between atoms: _23  and  _26
REMARK   13  A    between atoms: _26  and  _27
REMARK   14  A    between atoms: _27  and  _28
REMARK   15  A    between atoms: _31  and  _33
REMARK   16  A    between atoms: _33  and  _34
REMARK   17  A    between atoms: _33  and  _36
REMARK   18  A    between atoms: _36  and  _37
REMARK   19  A    between atoms: _39  and  _41
REMARK   20  A    between atoms: _41  and  _42
REMARK   21  A    between atoms: _44  and  _46
REMARK   22  A    between atoms: _46  and  _47
REMARK   23  A    between atoms: _46  and  _49
REMARK   24  A    between atoms: _49  and  _50
REMARK   25  A    between atoms: _53  and  _55
REMARK   26  A    between atoms: _55  and  _56
REMARK   27  A    between atoms: _58  and  _60
REMARK   28  A    between atoms: _60  and  _61
REMARK   29  A    between atoms: _60  and  _63
REMARK   30  A    between atoms: _63  and  _64
REMARK   31  A    between atoms: _64  and  _65
REMARK   32  A    between atoms: _65  and  _66
REMARK   33  A    between atoms: _66  and  _67
REMARK   34  A    between atoms: _71  and  _73
REMARK   35  A    between atoms: _73  and  _74
REMARK   36  A    between atoms: _77  and  _79
REMARK   37  A    between atoms: _79  and  _80
REMARK   38  A    between atoms: _83  and  _85
REMARK   39  A    between atoms: _85  and  _86
REMARK   40  A    between atoms: _85  and  _88
REMARK   41  A    between atoms: _88  and  _89
REMARK   42  A    between atoms: _94  and  _96
REMARK   43  A    between atoms: _96  and  _97
REMARK   44  A    between atoms: _96  and  _99
REMARK   45  A    between atoms: _99  and  _100
REMARK   46  A    between atoms: _103  and  _105
REMARK   47  A    between atoms: _105  and  _106
REMARK   48  A    between atoms: _108  and  _110
REMARK   49  A    between atoms: _110  and  _111
REMARK   50  A    between atoms: _110  and  _113
REMARK   51  A    between atoms: _113  and  _114
REMARK   52  A    between atoms: _116  and  _118
REMARK   53  A    between atoms: _118  and  _119
REMARK   54  A    between atoms: _122  and  _124
REMARK   55  A    between atoms: _124  and  _125
REMARK   56  A    between atoms: _127  and  _129
REMARK   57  A    between atoms: _129  and  _130
REMARK   58  A    between atoms: _132  and  _134
REMARK   59  A    between atoms: _134  and  _135
REMARK   60  A    between atoms: _134  and  _137
REMARK   61  A    between atoms: _137  and  _138
REMARK   62  A    between atoms: _141  and  _143
REMARK   63  A    between atoms: _143  and  _144
REMARK   64  A    between atoms: _143  and  _146
REMARK   65  A    between atoms: _146  and  _147
REMARK   66  A    between atoms: _152  and  _154
REMARK   67  A    between atoms: _154  and  _155
REMARK   68  A    between atoms: _154  and  _157
REMARK   69  A    between atoms: _157  and  _158
REMARK   70  A    between atoms: _161  and  _163
REMARK   71  A    between atoms: _163  and  _164
REMARK   72  A    between atoms: _163  and  _166
REMARK   73  A    between atoms: _169  and  _171
REMARK   74  A    between atoms: _171  and  _172
REMARK   75  A    between atoms: _171  and  _174
REMARK   76  A    between atoms: _174  and  _175
REMARK   77  A    between atoms: _177  and  _179
REMARK   78  A    between atoms: _179  and  _180
REMARK   79  A    between atoms: _182  and  _184
REMARK   80  A    between atoms: _184  and  _185
REMARK   81  A    between atoms: _184  and  _187
REMARK   82  A    between atoms: _187  and  _188
REMARK   83  A    between atoms: _191  and  _193
REMARK   84  A    between atoms: _193  and  _194
REMARK   85  A    between atoms: _197  and  _199
REMARK   86  A    between atoms: _199  and  _200
REMARK   87  A    between atoms: _199  and  _202
REMARK   88  A    between atoms: _202  and  _203
REMARK   89  A    between atoms: _209  and  _211
REMARK   90  A    between atoms: _211  and  _212
REMARK   91  A    between atoms: _211  and  _214
REMARK   92  A    between atoms: _214  and  _215
REMARK   93  A    between atoms: _218  and  _220
REMARK   94  A    between atoms: _220  and  _221
REMARK   95  A    between atoms: _220  and  _223
REMARK   96  A    between atoms: _223  and  _224
REMARK   97  A    between atoms: _229  and  _231
REMARK   98  A    between atoms: _231  and  _232
REMARK   99  A    between atoms: _234  and  _236
REMARK  100  A    between atoms: _236  and  _237
REMARK  101  A    between atoms: _236  and  _239
REMARK  102  A    between atoms: _239  and  _240
REMARK  103  A    between atoms: _243  and  _245
REMARK  104  A    between atoms: _245  and  _246
REMARK  105  A    between atoms: _245  and  _248
REMARK  106  A    between atoms: _248  and  _249
REMARK  107  A    between atoms: _252  and  _254
REMARK  108  A    between atoms: _254  and  _255
REMARK  109  A    between atoms: _258  and  _260
REMARK  110  A    between atoms: _260  and  _261
REMARK  111  A    between atoms: _260  and  _263
REMARK  112  A    between atoms: _266  and  _268
REMARK  113  A    between atoms: _268  and  _269
REMARK  114  A    between atoms: _268  and  _271
REMARK  115  A    between atoms: _271  and  _272
REMARK  116  A    between atoms: _272  and  _273
REMARK  117  A    between atoms: _276  and  _278
REMARK  118  A    between atoms: _278  and  _279
REMARK  119  A    between atoms: _278  and  _281
REMARK  120  A    between atoms: _281  and  _282
REMARK  121  A    between atoms: _282  and  _283
REMARK  122  A    between atoms: _285  and  _287
REMARK  123  A    between atoms: _287  and  _288
REMARK  124  A    between atoms: _287  and  _290
REMARK  125  A    between atoms: _290  and  _291
REMARK  126  A    between atoms: _291  and  _292
REMARK  127  A    between atoms: _295  and  _297
REMARK  128  A    between atoms: _297  and  _298
REMARK  129  A    between atoms: _301  and  _303
REMARK  130  A    between atoms: _303  and  _304
REMARK  131  A    between atoms: _303  and  _306
REMARK  132  A    between atoms: _306  and  _307
REMARK  133  A    between atoms: _310  and  _312
REMARK  134  A    between atoms: _312  and  _313
REMARK  135  A    between atoms: _312  and  _315
REMARK  136  A    between atoms: _315  and  _316
REMARK  137  A    between atoms: _319  and  _321
REMARK  138  A    between atoms: _321  and  _322
REMARK  139  A    between atoms: _321  and  _324
REMARK  140  A    between atoms: _324  and  _325
REMARK  141  A    between atoms: _325  and  _326
REMARK  142  A    between atoms: _326  and  _327
REMARK  143  A    between atoms: _336  and  _338
REMARK  144  A    between atoms: _338  and  _339
REMARK  145  A    between atoms: _342  and  _344
REMARK  146  A    between atoms: _344  and  _345
REMARK  147  A    between atoms: _344  and  _347
REMARK  148  A    between atoms: _347  and  _348
REMARK  149  A    between atoms: _351  and  _353
REMARK  150  A    between atoms: _353  and  _354
REMARK  151  A    between atoms: _353  and  _356
REMARK  152  A    between atoms: _356  and  _357
REMARK  153  A    between atoms: _359  and  _361
REMARK  154  A    between atoms: _361  and  _362
REMARK  155  A    between atoms: _361  and  _364
REMARK  156  A    between atoms: _364  and  _365
REMARK  157  A    between atoms: _368  and  _370
REMARK  158  A    between atoms: _370  and  _371
REMARK  159  A    between atoms: _370  and  _373
REMARK  160  A    between atoms: _376  and  _378
REMARK  161  A    between atoms: _378  and  _379
REMARK  162  A    between atoms: _382  and  _384
REMARK  163  A    between atoms: _384  and  _385
REMARK  164  A    between atoms: _384  and  _387
REMARK  165  A    between atoms: _387  and  _388
REMARK  166  A    between atoms: _391  and  _393
REMARK  167  A    between atoms: _393  and  _394
REMARK  168  A    between atoms: _393  and  _396
REMARK  169  A    between atoms: _396  and  _397
REMARK  170  A    between atoms: _399  and  _401
REMARK  171  A    between atoms: _401  and  _402
REMARK  172  A    between atoms: _401  and  _404
REMARK  173  A    between atoms: _404  and  _405
REMARK  174  A    between atoms: _410  and  _412
REMARK  175  A    between atoms: _412  and  _413
REMARK  176  A    between atoms: _412  and  _415
REMARK  177  A    between atoms: _415  and  _416
REMARK  178  A    between atoms: _418  and  _420
REMARK  179  A    between atoms: _420  and  _421
REMARK  180  A    between atoms: _420  and  _423
REMARK  181  A    between atoms: _423  and  _424
REMARK  182  A    between atoms: _430  and  _432
REMARK  183  A    between atoms: _432  and  _433
REMARK  184  A    between atoms: _432  and  _435
REMARK  185  A    between atoms: _435  and  _436
REMARK  186  A    between atoms: _439  and  _441
REMARK  187  A    between atoms: _441  and  _442
REMARK  188  A    between atoms: _441  and  _444
REMARK  189  A    between atoms: _444  and  _445
REMARK  190  A    between atoms: _448  and  _450
REMARK  191  A    between atoms: _450  and  _451
REMARK  192  A    between atoms: _454  and  _456
REMARK  193  A    between atoms: _456  and  _457
REMARK  194  A    between atoms: _456  and  _459
REMARK  195  A    between atoms: _459  and  _460
REMARK  196  A    between atoms: _463  and  _465
REMARK  197  A    between atoms: _465  and  _466
REMARK  198  A    between atoms: _465  and  _468
REMARK  199  A    between atoms: _471  and  _473
REMARK  200  A    between atoms: _473  and  _474
REMARK  201  A    between atoms: _477  and  _479
REMARK  202  A    between atoms: _479  and  _480
REMARK  203  A    between atoms: _479  and  _482
REMARK  204  A    between atoms: _482  and  _483
REMARK  205  A    between atoms: _489  and  _491
REMARK  206  A    between atoms: _491  and  _492
REMARK  207  A    between atoms: _491  and  _494
REMARK  208  A    between atoms: _494  and  _495
REMARK  209  A    between atoms: _500  and  _501
REMARK  210  A    between atoms: _503  and  _505
REMARK  211  A    between atoms: _505  and  _506
REMARK  212  A    between atoms: _505  and  _508
REMARK  213  A    between atoms: _508  and  _509
REMARK  214  A    between atoms: _513  and  _514
REMARK                            x       y       z     vdW  Elec       q    Type
REMARK                         _______ _______ _______ _____ _____    ______ ____
ROOT
ATOM      1  CA  ILE A   3      59.364  71.915  28.149  0.00  0.00    +0.149 C 
ENDROOT
BRANCH   1   3
ATOM      2  C   GLY A   2      61.652  71.623  28.951  0.00  0.00    +0.243 C 
ATOM      3  N   ILE A   3      60.422  71.149  28.800  0.00  0.00    -0.297 N 
ATOM      4  H   ILE A   3      60.204  70.197  29.158  0.00  0.00    +0.150 HD
ATOM      5  O   GLY A   2      61.965  72.777  28.639  0.00  0.00    -0.273 OA
BRANCH   2   6
ATOM      6  CA  GLY A   2      62.686  70.697  29.572  0.00  0.00    +0.176 C 
BRANCH   6   9
ATOM      7  C   SER A   1      64.468  72.105  30.314  0.00  0.00    +0.241 C 
ATOM      8  O   SER A   1      63.981  72.133  31.450  0.00  0.00    -0.274 OA
ATOM      9  N   GLY A   2      63.939  71.393  29.327  0.00  0.00    -0.295 N 
ATOM     10  H   GLY A   2      64.409  71.334  28.401  0.00  0.00    +0.150 HD
BRANCH   7  11
ATOM     11  CA  SER A   1      65.712  72.906  30.007  0.00  0.00    +0.174 C 
BRANCH  11  12
ATOM     12  N   SER A   1      66.625  72.462  28.956  0.00  0.00    -0.236 NA
ATOM     13  H   SER A   1      66.512  72.819  27.986  0.00  0.00    +0.142 HD
ENDBRANCH  11  12
BRANCH  11  14
ATOM     14  CB  SER A   1      65.253  74.328  29.725  0.00  0.00    +0.163 C 
BRANCH  14  15
ATOM     15  OG  SER A   1      64.442  74.354  28.558  0.00  0.00    -0.380 OA
ATOM     16  H   SER A   1      63.650  73.776  28.695  0.00  0.00    +0.211 HD
ENDBRANCH  14  15
ENDBRANCH  11  14
ENDBRANCH   7  11
ENDBRANCH   6   9
ENDBRANCH   2   6
ENDBRANCH   1   3
BRANCH   1  17
ATOM     17  C   ILE A   3      58.488  72.841  29.021  0.00  0.00    +0.241 C 
ATOM     18  O   ILE A   3      58.118  72.483  30.130  0.00  0.00    -0.273 OA
ATOM     19  N   GLY A   4      58.149  74.030  28.510  0.00  0.00    -0.295 N 
ATOM     20  H   GLY A   4      58.499  74.312  27.572  0.00  0.00    +0.150 HD
BRANCH  19  21
ATOM     21  CA  GLY A   4      57.287  74.931  29.270  0.00  0.00    +0.176 C 
BRANCH  21  22
ATOM     22  C   GLY A   4      57.975  76.127  29.907  0.00  0.00    +0.243 C 
ATOM     23  N   LYS A   5      57.178  77.101  30.339  0.00  0.00    -0.298 N 
ATOM     24  H   LYS A   5      56.147  76.985  30.265  0.00  0.00    +0.150 HD
ATOM     25  O   GLY A   4      59.210  76.153  30.050  0.00  0.00    -0.273 OA
BRANCH  23  26
ATOM     26  CA  LYS A   5      57.722  78.334  30.917  0.00  0.00    +0.137 C 
BRANCH  26  27
ATOM     27  C   LYS A   5      58.489  78.160  32.219  0.00  0.00    +0.227 C 
ATOM     28  O   LYS A   5      59.564  78.748  32.392  0.00  0.00    -0.286 OA
ENDBRANCH  26  27
BRANCH  26  29
ATOM     29  CB  LYS A   5      56.601  79.377  31.106  0.00  0.00    +0.028 C 
BRANCH  29  30
ATOM     30  CG  LYS A   5      55.522  79.293  30.026  0.00  0.00    -0.000 C 
BRANCH  30  31
ATOM     31  CD  LYS A   5      54.660  80.555  29.834  0.00  0.00    -0.024 C 
BRANCH  31  32
ATOM     32  CE  LYS A   5      53.916  81.018  31.066  0.00  0.00    -0.086 C 
BRANCH  32  33
ATOM     33  NZ  LYS A   5      52.798  81.947  30.654  0.00  0.00    +0.380 N 
ATOM     34  HZ1 LYS A   5      52.285  82.267  31.500  0.00  0.00    -0.089 HD
ATOM     35  HZ2 LYS A   5      53.197  82.769  30.158  0.00  0.00    -0.089 HD
ATOM     36  HZ3 LYS A   5      52.145  81.442  30.021  0.00  0.00    -0.089 HD
ENDBRANCH  32  33
ENDBRANCH  31  32
ENDBRANCH  30  31
ENDBRANCH  29  30
ENDBRANCH  26  29
ENDBRANCH  23  26
ENDBRANCH  21  22
ENDBRANCH  19  21
ENDBRANCH   1  17
BRANCH   1  37
ATOM     37  CB  ILE A   3      58.455  70.913  27.354  0.00  0.00    +0.027 C 
ATOM     38  CG2 ILE A   3      57.206  71.615  26.831  0.00  0.00    +0.002 C 
BRANCH  37  39
ATOM     39  CG1 ILE A   3      59.280  70.274  26.215  0.00  0.00    +0.002 C 
ATOM     40  CD1 ILE A   3      58.568  69.154  25.424  0.00  0.00    +0.000 C 
ENDBRANCH  37  39
ENDBRANCH   1  37
TORSDOF 19
REMARK  Name = ../refined-set-2016/1y6r/1y6r_pocket.pdb
REMARK  214 active torsions:
REMARK  status: ('A' for Active; 'I' for Inactive)
REMARK    1  A    between atoms: _1  and  _3
REMARK    2  A    between atoms: _3  and  _4
REMARK    3  A    between atoms: _6  and  _8
REMARK    4  A    between atoms: _8  and  _9
REMARK    5  A    between atoms: _12  and  _14
REMARK    6  A    between atoms: _14  and  _15
REMARK    7  A    between atoms: _14  and  _17
REMARK    8  A    between atoms: _17  and  _18
REMARK    9  A    between atoms: _18  and  _19
REMARK   10  A    between atoms: _21  and  _23
REMARK   11  A    between atoms: _23  and  _24
REMARK   12  A    between atoms: _23  and  _26
REMARK   13  A    between atoms: _26  and  _27
REMARK   14  A    between atoms: _27  and  _28
REMARK   15  A    between atoms: _31  and  _33
REMARK   16  A    between atoms: _33  and  _34
REMARK   17  A    between atoms: _33  and  _36
REMARK   18  A    between atoms: _36  and  _37
REMARK   19  A    between atoms: _39  and  _41
REMARK   20  A    between atoms: _41  and  _42
REMARK   21  A    between atoms: _44  and  _46
REMARK   22  A    between atoms: _46  and  _47
REMARK   23  A    between atoms: _46  and  _49
REMARK   24  A    between atoms: _49  and  _50
REMARK   25  A    between atoms: _53  and  _55
REMARK   26  A    between atoms: _55  and  _56
REMARK   27  A    between atoms: _58  and  _60
REMARK   28  A    between atoms: _60  and  _61
REMARK   29  A    between atoms: _60  and  _63
REMARK   30  A    between atoms: _63  and  _64
REMARK   31  A    between atoms: _64  and  _65
REMARK   32  A    between atoms: _65  and  _66
REMARK   33  A    between atoms: _66  and  _67
REMARK   34  A    between atoms: _71  and  _73
REMARK   35  A    between atoms: _73  and  _74
REMARK   36  A    between atoms: _77  and  _79
REMARK   37  A    between atoms: _79  and  _80
REMARK   38  A    between atoms: _83  and  _85
REMARK   39  A    between atoms: _85  and  _86
REMARK   40  A    between atoms: _85  and  _88
REMARK   41  A    between atoms: _88  and  _89
REMARK   42  A    between atoms: _94  and  _96
REMARK   43  A    between atoms: _96  and  _97
REMARK   44  A    between atoms: _96  and  _99
REMARK   45  A    between atoms: _99  and  _100
REMARK   46  A    between atoms: _103  and  _105
REMARK   47  A    between atoms: _105  and  _106
REMARK   48  A    between atoms: _108  and  _110
REMARK   49  A    between atoms: _110  and  _111
REMARK   50  A    between atoms: _110  and  _113
REMARK   51  A    between atoms: _113  and  _114
REMARK   52  A    between atoms: _116  and  _118
REMARK   53  A    between atoms: _118  and  _119
REMARK   54  A    between atoms: _122  and  _124
REMARK   55  A    between atoms: _124  and  _125
REMARK   56  A    between atoms: _127  and  _129
REMARK   57  A    between atoms: _129  and  _130
REMARK   58  A    between atoms: _132  and  _134
REMARK   59  A    between atoms: _134  and  _135
REMARK   60  A    between atoms: _134  and  _137
REMARK   61  A    between atoms: _137  and  _138
REMARK   62  A    between atoms: _141  and  _143
REMARK   63  A    between atoms: _143  and  _144
REMARK   64  A    between atoms: _143  and  _146
REMARK   65  A    between atoms: _146  and  _147
REMARK   66  A    between atoms: _152  and  _154
REMARK   67  A    between atoms: _154  and  _155
REMARK   68  A    between atoms: _154  and  _157
REMARK   69  A    between atoms: _157  and  _158
REMARK   70  A    between atoms: _161  and  _163
REMARK   71  A    between atoms: _163  and  _164
REMARK   72  A    between atoms: _163  and  _166
REMARK   73  A    between atoms: _169  and  _171
REMARK   74  A    between atoms: _171  and  _172
REMARK   75  A    between atoms: _171  and  _174
REMARK   76  A    between atoms: _174  and  _175
REMARK   77  A    between atoms: _177  and  _179
REMARK   78  A    between atoms: _179  and  _180
REMARK   79  A    between atoms: _182  and  _184
REMARK   80  A    between atoms: _184  and  _185
REMARK   81  A    between atoms: _184  and  _187
REMARK   82  A    between atoms: _187  and  _188
REMARK   83  A    between atoms: _191  and  _193
REMARK   84  A    between atoms: _193  and  _194
REMARK   85  A    between atoms: _197  and  _199
REMARK   86  A    between atoms: _199  and  _200
REMARK   87  A    between atoms: _199  and  _202
REMARK   88  A    between atoms: _202  and  _203
REMARK   89  A    between atoms: _209  and  _211
REMARK   90  A    between atoms: _211  and  _212
REMARK   91  A    between atoms: _211  and  _214
REMARK   92  A    between atoms: _214  and  _215
REMARK   93  A    between atoms: _218  and  _220
REMARK   94  A    between atoms: _220  and  _221
REMARK   95  A    between atoms: _220  and  _223
REMARK   96  A    between atoms: _223  and  _224
REMARK   97  A    between atoms: _229  and  _231
REMARK   98  A    between atoms: _231  and  _232
REMARK   99  A    between atoms: _234  and  _236
REMARK  100  A    between atoms: _236  and  _237
REMARK  101  A    between atoms: _236  and  _239
REMARK  102  A    between atoms: _239  and  _240
REMARK  103  A    between atoms: _243  and  _245
REMARK  104  A    between atoms: _245  and  _246
REMARK  105  A    between atoms: _245  and  _248
REMARK  106  A    between atoms: _248  and  _249
REMARK  107  A    between atoms: _252  and  _254
REMARK  108  A    between atoms: _254  and  _255
REMARK  109  A    between atoms: _258  and  _260
REMARK  110  A    between atoms: _260  and  _261
REMARK  111  A    between atoms: _260  and  _263
REMARK  112  A    between atoms: _266  and  _268
REMARK  113  A    between atoms: _268  and  _269
REMARK  114  A    between atoms: _268  and  _271
REMARK  115  A    between atoms: _271  and  _272
REMARK  116  A    between atoms: _272  and  _273
REMARK  117  A    between atoms: _276  and  _278
REMARK  118  A    between atoms: _278  and  _279
REMARK  119  A    between atoms: _278  and  _281
REMARK  120  A    between atoms: _281  and  _282
REMARK  121  A    between atoms: _282  and  _283
REMARK  122  A    between atoms: _285  and  _287
REMARK  123  A    between atoms: _287  and  _288
REMARK  124  A    between atoms: _287  and  _290
REMARK  125  A    between atoms: _290  and  _291
REMARK  126  A    between atoms: _291  and  _292
REMARK  127  A    between atoms: _295  and  _297
REMARK  128  A    between atoms: _297  and  _298
REMARK  129  A    between atoms: _301  and  _303
REMARK  130  A    between atoms: _303  and  _304
REMARK  131  A    between atoms: _303  and  _306
REMARK  132  A    between atoms: _306  and  _307
REMARK  133  A    between atoms: _310  and  _312
REMARK  134  A    between atoms: _312  and  _313
REMARK  135  A    between atoms: _312  and  _315
REMARK  136  A    between atoms: _315  and  _316
REMARK  137  A    between atoms: _319  and  _321
REMARK  138  A    between atoms: _321  and  _322
REMARK  139  A    between atoms: _321  and  _324
REMARK  140  A    between atoms: _324  and  _325
REMARK  141  A    between atoms: _325  and  _326
REMARK  142  A    between atoms: _326  and  _327
REMARK  143  A    between atoms: _336  and  _338
REMARK  144  A    between atoms: _338  and  _339
REMARK  145  A    between atoms: _342  and  _344
REMARK  146  A    between atoms: _344  and  _345
REMARK  147  A    between atoms: _344  and  _347
REMARK  148  A    between atoms: _347  and  _348
REMARK  149  A    between atoms: _351  and  _353
REMARK  150  A    between atoms: _353  and  _354
REMARK  151  A    between atoms: _353  and  _356
REMARK  152  A    between atoms: _356  and  _357
REMARK  153  A    between atoms: _359  and  _361
REMARK  154  A    between atoms: _361  and  _362
REMARK  155  A    between atoms: _361  and  _364
REMARK  156  A    between atoms: _364  and  _365
REMARK  157  A    between atoms: _368  and  _370
REMARK  158  A    between atoms: _370  and  _371
REMARK  159  A    between atoms: _370  and  _373
REMARK  160  A    between atoms: _376  and  _378
REMARK  161  A    between atoms: _378  and  _379
REMARK  162  A    between atoms: _382  and  _384
REMARK  163  A    between atoms: _384  and  _385
REMARK  164  A    between atoms: _384  and  _387
REMARK  165  A    between atoms: _387  and  _388
REMARK  166  A    between atoms: _391  and  _393
REMARK  167  A    between atoms: _393  and  _394
REMARK  168  A    between atoms: _393  and  _396
REMARK  169  A    between atoms: _396  and  _397
REMARK  170  A    between atoms: _399  and  _401
REMARK  171  A    between atoms: _401  and  _402
REMARK  172  A    between atoms: _401  and  _404
REMARK  173  A    between atoms: _404  and  _405
REMARK  174  A    between atoms: _410  and  _412
REMARK  175  A    between atoms: _412  and  _413
REMARK  176  A    between atoms: _412  and  _415
REMARK  177  A    between atoms: _415  and  _416
REMARK  178  A    between atoms: _418  and  _420
REMARK  179  A    between atoms: _420  and  _421
REMARK  180  A    between atoms: _420  and  _423
REMARK  181  A    between atoms: _423  and  _424
REMARK  182  A    between atoms: _430  and  _432
REMARK  183  A    between atoms: _432  and  _433
REMARK  184  A    between atoms: _432  and  _435
REMARK  185  A    between atoms: _435  and  _436
REMARK  186  A    between atoms: _439  and  _441
REMARK  187  A    between atoms: _441  and  _442
REMARK  188  A    between atoms: _441  and  _444
REMARK  189  A    between atoms: _444  and  _445
REMARK  190  A    between atoms: _448  and  _450
REMARK  191  A    between atoms: _450  and  _451
REMARK  192  A    between atoms: _454  and  _456
REMARK  193  A    between atoms: _456  and  _457
REMARK  194  A    between atoms: _456  and  _459
REMARK  195  A    between atoms: _459  and  _460
REMARK  196  A    between atoms: _463  and  _465
REMARK  197  A    between atoms: _465  and  _466
REMARK  198  A    between atoms: _465  and  _468
REMARK  199  A    between atoms: _471  and  _473
REMARK  200  A    between atoms: _473  and  _474
REMARK  201  A    between atoms: _477  and  _479
REMARK  202  A    between atoms: _479  and  _480
REMARK  203  A    between atoms: _479  and  _482
REMARK  204  A    between atoms: _482  and  _483
REMARK  205  A    between atoms: _489  and  _491
REMARK  206  A    between atoms: _491  and  _492
REMARK  207  A    between atoms: _491  and  _494
REMARK  208  A    between atoms: _494  and  _495
REMARK  209  A    between atoms: _500  and  _501
REMARK  210  A    between atoms: _503  and  _505
REMARK  211  A    between atoms: _505  and  _506
REMARK  212  A    between atoms: _505  and  _508
REMARK  213  A    between atoms: _508  and  _509
REMARK  214  A    between atoms: _513  and  _514
REMARK                            x       y       z     vdW  Elec       q    Type
REMARK                         _______ _______ _______ _____ _____    ______ ____
ROOT
ATOM      1  C   ALA A   1      62.199  75.471  32.581  0.00  0.00    +0.238 C 
ATOM      2  O   ALA A   1      63.349  75.486  33.010  0.00  0.00    -0.274 OA
ATOM      3  N   ALA A   2      61.795  76.251  31.584  0.00  0.00    -0.298 N 
ATOM      4  H   ALA A   2      60.805  76.201  31.270  0.00  0.00    +0.150 HD
ENDROOT
BRANCH   1   5
ATOM      5  CA  ALA A   1      61.134  74.556  33.193  0.00  0.00    +0.145 C 
ATOM      6  CB  ALA A   1      60.844  73.383  32.289  0.00  0.00    +0.028 C 
BRANCH   5   7
ATOM      7  N   ALA A   1      59.929  75.336  33.409  0.00  0.00    -0.238 NA
ATOM      8  H   ALA A   1      59.046  75.071  32.927  0.00  0.00    +0.142 HD
ENDBRANCH   5   7
ENDBRANCH   1   5
BRANCH   3   9
ATOM      9  CA  ALA A   2      62.706  77.175  30.920  0.00  0.00    +0.137 C 
ATOM     10  CB  ALA A   2      61.990  77.850  29.743  0.00  0.00    +0.030 C 
BRANCH   9  11
ATOM     11  C   ALA A   2      63.244  78.237  31.890  0.00  0.00    +0.227 C 
ATOM     12  O   ALA A   2      64.431  78.563  31.872  0.00  0.00    -0.286 OA
ENDBRANCH   9  11
ENDBRANCH   3   9
TORSDOF 4
REMARK  Name = ../refined-set-2016/1y6r/1y6r_pocket.pdb
REMARK  214 active torsions:
REMARK  status: ('A' for Active; 'I' for Inactive)
REMARK    1  A    between atoms: _1  and  _3
REMARK    2  A    between atoms: _3  and  _4
REMARK    3  A    between atoms: _6  and  _8
REMARK    4  A    between atoms: _8  and  _9
REMARK    5  A    between atoms: _12  and  _14
REMARK    6  A    between atoms: _14  and  _15
REMARK    7  A    between atoms: _14  and  _17
REMARK    8  A    between atoms: _17  and  _18
REMARK    9  A    between atoms: _18  and  _19
REMARK   10  A    between atoms: _21  and  _23
REMARK   11  A    between atoms: _23  and  _24
REMARK   12  A    between atoms: _23  and  _26
REMARK   13  A    between atoms: _26  and  _27
REMARK   14  A    between atoms: _27  and  _28
REMARK   15  A    between atoms: _31  and  _33
REMARK   16  A    between atoms: _33  and  _34
REMARK   17  A    between atoms: _33  and  _36
REMARK   18  A    between atoms: _36  and  _37
REMARK   19  A    between atoms: _39  and  _41
REMARK   20  A    between atoms: _41  and  _42
REMARK   21  A    between atoms: _44  and  _46
REMARK   22  A    between atoms: _46  and  _47
REMARK   23  A    between atoms: _46  and  _49
REMARK   24  A    between atoms: _49  and  _50
REMARK   25  A    between atoms: _53  and  _55
REMARK   26  A    between atoms: _55  and  _56
REMARK   27  A    between atoms: _58  and  _60
REMARK   28  A    between atoms: _60  and  _61
REMARK   29  A    between atoms: _60  and  _63
REMARK   30  A    between atoms: _63  and  _64
REMARK   31  A    between atoms: _64  and  _65
REMARK   32  A    between atoms: _65  and  _66
REMARK   33  A    between atoms: _66  and  _67
REMARK   34  A    between atoms: _71  and  _73
REMARK   35  A    between atoms: _73  and  _74
REMARK   36  A    between atoms: _77  and  _79
REMARK   37  A    between atoms: _79  and  _80
REMARK   38  A    between atoms: _83  and  _85
REMARK   39  A    between atoms: _85  and  _86
REMARK   40  A    between atoms: _85  and  _88
REMARK   41  A    between atoms: _88  and  _89
REMARK   42  A    between atoms: _94  and  _96
REMARK   43  A    between atoms: _96  and  _97
REMARK   44  A    between atoms: _96  and  _99
REMARK   45  A    between atoms: _99  and  _100
REMARK   46  A    between atoms: _103  and  _105
REMARK   47  A    between atoms: _105  and  _106
REMARK   48  A    between atoms: _108  and  _110
REMARK   49  A    between atoms: _110  and  _111
REMARK   50  A    between atoms: _110  and  _113
REMARK   51  A    between atoms: _113  and  _114
REMARK   52  A    between atoms: _116  and  _118
REMARK   53  A    between atoms: _118  and  _119
REMARK   54  A    between atoms: _122  and  _124
REMARK   55  A    between atoms: _124  and  _125
REMARK   56  A    between atoms: _127  and  _129
REMARK   57  A    between atoms: _129  and  _130
REMARK   58  A    between atoms: _132  and  _134
REMARK   59  A    between atoms: _134  and  _135
REMARK   60  A    between atoms: _134  and  _137
REMARK   61  A    between atoms: _137  and  _138
REMARK   62  A    between atoms: _141  and  _143
REMARK   63  A    between atoms: _143  and  _144
REMARK   64  A    between atoms: _143  and  _146
REMARK   65  A    between atoms: _146  and  _147
REMARK   66  A    between atoms: _152  and  _154
REMARK   67  A    between atoms: _154  and  _155
REMARK   68  A    between atoms: _154  and  _157
REMARK   69  A    between atoms: _157  and  _158
REMARK   70  A    between atoms: _161  and  _163
REMARK   71  A    between atoms: _163  and  _164
REMARK   72  A    between atoms: _163  and  _166
REMARK   73  A    between atoms: _169  and  _171
REMARK   74  A    between atoms: _171  and  _172
REMARK   75  A    between atoms: _171  and  _174
REMARK   76  A    between atoms: _174  and  _175
REMARK   77  A    between atoms: _177  and  _179
REMARK   78  A    between atoms: _179  and  _180
REMARK   79  A    between atoms: _182  and  _184
REMARK   80  A    between atoms: _184  and  _185
REMARK   81  A    between atoms: _184  and  _187
REMARK   82  A    between atoms: _187  and  _188
REMARK   83  A    between atoms: _191  and  _193
REMARK   84  A    between atoms: _193  and  _194
REMARK   85  A    between atoms: _197  and  _199
REMARK   86  A    between atoms: _199  and  _200
REMARK   87  A    between atoms: _199  and  _202
REMARK   88  A    between atoms: _202  and  _203
REMARK   89  A    between atoms: _209  and  _211
REMARK   90  A    between atoms: _211  and  _212
REMARK   91  A    between atoms: _211  and  _214
REMARK   92  A    between atoms: _214  and  _215
REMARK   93  A    between atoms: _218  and  _220
REMARK   94  A    between atoms: _220  and  _221
REMARK   95  A    between atoms: _220  and  _223
REMARK   96  A    between atoms: _223  and  _224
REMARK   97  A    between atoms: _229  and  _231
REMARK   98  A    between atoms: _231  and  _232
REMARK   99  A    between atoms: _234  and  _236
REMARK  100  A    between atoms: _236  and  _237
REMARK  101  A    between atoms: _236  and  _239
REMARK  102  A    between atoms: _239  and  _240
REMARK  103  A    between atoms: _243  and  _245
REMARK  104  A    between atoms: _245  and  _246
REMARK  105  A    between atoms: _245  and  _248
REMARK  106  A    between atoms: _248  and  _249
REMARK  107  A    between atoms: _252  and  _254
REMARK  108  A    between atoms: _254  and  _255
REMARK  109  A    between atoms: _258  and  _260
REMARK  110  A    between atoms: _260  and  _261
REMARK  111  A    between atoms: _260  and  _263
REMARK  112  A    between atoms: _266  and  _268
REMARK  113  A    between atoms: _268  and  _269
REMARK  114  A    between atoms: _268  and  _271
REMARK  115  A    between atoms: _271  and  _272
REMARK  116  A    between atoms: _272  and  _273
REMARK  117  A    between atoms: _276  and  _278
REMARK  118  A    between atoms: _278  and  _279
REMARK  119  A    between atoms: _278  and  _281
REMARK  120  A    between atoms: _281  and  _282
REMARK  121  A    between atoms: _282  and  _283
REMARK  122  A    between atoms: _285  and  _287
REMARK  123  A    between atoms: _287  and  _288
REMARK  124  A    between atoms: _287  and  _290
REMARK  125  A    between atoms: _290  and  _291
REMARK  126  A    between atoms: _291  and  _292
REMARK  127  A    between atoms: _295  and  _297
REMARK  128  A    between atoms: _297  and  _298
REMARK  129  A    between atoms: _301  and  _303
REMARK  130  A    between atoms: _303  and  _304
REMARK  131  A    between atoms: _303  and  _306
REMARK  132  A    between atoms: _306  and  _307
REMARK  133  A    between atoms: _310  and  _312
REMARK  134  A    between atoms: _312  and  _313
REMARK  135  A    between atoms: _312  and  _315
REMARK  136  A    between atoms: _315  and  _316
REMARK  137  A    between atoms: _319  and  _321
REMARK  138  A    between atoms: _321  and  _322
REMARK  139  A    between atoms: _321  and  _324
REMARK  140  A    between atoms: _324  and  _325
REMARK  141  A    between atoms: _325  and  _326
REMARK  142  A    between atoms: _326  and  _327
REMARK  143  A    between atoms: _336  and  _338
REMARK  144  A    between atoms: _338  and  _339
REMARK  145  A    between atoms: _342  and  _344
REMARK  146  A    between atoms: _344  and  _345
REMARK  147  A    between atoms: _344  and  _347
REMARK  148  A    between atoms: _347  and  _348
REMARK  149  A    between atoms: _351  and  _353
REMARK  150  A    between atoms: _353  and  _354
REMARK  151  A    between atoms: _353  and  _356
REMARK  152  A    between atoms: _356  and  _357
REMARK  153  A    between atoms: _359  and  _361
REMARK  154  A    between atoms: _361  and  _362
REMARK  155  A    between atoms: _361  and  _364
REMARK  156  A    between atoms: _364  and  _365
REMARK  157  A    between atoms: _368  and  _370
REMARK  158  A    between atoms: _370  and  _371
REMARK  159  A    between atoms: _370  and  _373
REMARK  160  A    between atoms: _376  and  _378
REMARK  161  A    between atoms: _378  and  _379
REMARK  162  A    between atoms: _382  and  _384
REMARK  163  A    between atoms: _384  and  _385
REMARK  164  A    between atoms: _384  and  _387
REMARK  165  A    between atoms: _387  and  _388
REMARK  166  A    between atoms: _391  and  _393
REMARK  167  A    between atoms: _393  and  _394
REMARK  168  A    between atoms: _393  and  _396
REMARK  169  A    between atoms: _396  and  _397
REMARK  170  A    between atoms: _399  and  _401
REMARK  171  A    between atoms: _401  and  _402
REMARK  172  A    between atoms: _401  and  _404
REMARK  173  A    between atoms: _404  and  _405
REMARK  174  A    between atoms: _410  and  _412
REMARK  175  A    between atoms: _412  and  _413
REMARK  176  A    between atoms: _412  and  _415
REMARK  177  A    between atoms: _415  and  _416
REMARK  178  A    between atoms: _418  and  _420
REMARK  179  A    between atoms: _420  and  _421
REMARK  180  A    between atoms: _420  and  _423
REMARK  181  A    between atoms: _423  and  _424
REMARK  182  A    between atoms: _430  and  _432
REMARK  183  A    between atoms: _432  and  _433
REMARK  184  A    between atoms: _432  and  _435
REMARK  185  A    between atoms: _435  and  _436
REMARK  186  A    between atoms: _439  and  _441
REMARK  187  A    between atoms: _441  and  _442
REMARK  188  A    between atoms: _441  and  _444
REMARK  189  A    between atoms: _444  and  _445
REMARK  190  A    between atoms: _448  and  _450
REMARK  191  A    between atoms: _450  and  _451
REMARK  192  A    between atoms: _454  and  _456
REMARK  193  A    between atoms: _456  and  _457
REMARK  194  A    between atoms: _456  and  _459
REMARK  195  A    between atoms: _459  and  _460
REMARK  196  A    between atoms: _463  and  _465
REMARK  197  A    between atoms: _465  and  _466
REMARK  198  A    between atoms: _465  and  _468
REMARK  199  A    between atoms: _471  and  _473
REMARK  200  A    between atoms: _473  and  _474
REMARK  201  A    between atoms: _477  and  _479
REMARK  202  A    between atoms: _479  and  _480
REMARK  203  A    between atoms: _479  and  _482
REMARK  204  A    between atoms: _482  and  _483
REMARK  205  A    between atoms: _489  and  _491
REMARK  206  A    between atoms: _491  and  _492
REMARK  207  A    between atoms: _491  and  _494
REMARK  208  A    between atoms: _494  and  _495
REMARK  209  A    between atoms: _500  and  _501
REMARK  210  A    between atoms: _503  and  _505
REMARK  211  A    between atoms: _505  and  _506
REMARK  212  A    between atoms: _505  and  _508
REMARK  213  A    between atoms: _508  and  _509
REMARK  214  A    between atoms: _513  and  _514
REMARK                            x       y       z     vdW  Elec       q    Type
REMARK                         _______ _______ _______ _____ _____    ______ ____
ROOT
ATOM      1  CA  SER A   4      61.389  74.306  17.119  0.00  0.00    +0.178 C 
ENDROOT
BRANCH   1   3
ATOM      2  C   GLY A   3      63.665  74.873  17.847  0.00  0.00    +0.243 C 
ATOM      3  N   SER A   4      62.500  74.261  18.075  0.00  0.00    -0.295 N 
ATOM      4  H   SER A   4      62.376  73.733  18.963  0.00  0.00    +0.150 HD
ATOM      5  O   GLY A   3      63.881  75.561  16.841  0.00  0.00    -0.273 OA
BRANCH   2   6
ATOM      6  CA  GLY A   3      64.730  74.703  18.920  0.00  0.00    +0.176 C 
BRANCH   6   9
ATOM      7  C   THR A   2      66.145  76.323  20.008  0.00  0.00    +0.243 C 
ATOM      8  O   THR A   2      65.610  76.086  21.095  0.00  0.00    -0.273 OA
ATOM      9  N   GLY A   3      65.801  75.697  18.889  0.00  0.00    -0.295 N 
ATOM     10  H   GLY A   3      66.290  75.912  17.997  0.00  0.00    +0.150 HD
BRANCH   7  11
ATOM     11  CA  THR A   2      67.266  77.341  19.903  0.00  0.00    +0.176 C 
BRANCH  11  13
ATOM     12  C   ASN A   1      67.121  79.410  21.221  0.00  0.00    +0.239 C 
ATOM     13  N   THR A   2      67.394  78.110  21.153  0.00  0.00    -0.295 N 
ATOM     14  H   THR A   2      67.709  77.619  22.014  0.00  0.00    +0.150 HD
ATOM     15  O   ASN A   1      66.743  80.067  20.246  0.00  0.00    -0.274 OA
BRANCH  12  16
ATOM     16  CA  ASN A   1      67.339  80.083  22.590  0.00  0.00    +0.154 C 
BRANCH  16  17
ATOM     17  N   ASN A   1      68.351  81.119  22.394  0.00  0.00    -0.238 NA
ATOM     18  H   ASN A   1      68.070  82.049  22.023  0.00  0.00    +0.142 HD
ENDBRANCH  16  17
BRANCH  16  19
ATOM     19  CB  ASN A   1      66.046  80.709  23.108  0.00  0.00    +0.111 C 
BRANCH  19  20
ATOM     20  CG  ASN A   1      64.891  79.716  23.164  0.00  0.00    +0.221 C 
ATOM     21  ND2 ASN A   1      65.191  78.454  23.458  0.00  0.00    -0.329 N 
ATOM     22 HD21 ASN A   1      66.180  78.180  23.624  0.00  0.00    +0.145 HD
ATOM     23 HD22 ASN A   1      64.436  77.741  23.522  0.00  0.00    +0.145 HD
ATOM     24  OD1 ASN A   1      63.741  80.093  22.959  0.00  0.00    -0.275 OA
ENDBRANCH  19  20
ENDBRANCH  16  19
ENDBRANCH  12  16
ENDBRANCH  11  13
BRANCH  11  25
ATOM     25  CB  THR A   2      68.576  76.549  19.570  0.00  0.00    +0.137 C 
ATOM     26  CG2 THR A   2      68.830  75.446  20.600  0.00  0.00    +0.034 C 
BRANCH  25  27
ATOM     27  OG1 THR A   2      68.439  75.933  18.285  0.00  0.00    -0.382 OA
ATOM     28  HG1 THR A   2      67.668  75.312  18.299  0.00  0.00    +0.210 HD
ENDBRANCH  25  27
ENDBRANCH  11  25
ENDBRANCH   7  11
ENDBRANCH   6   9
ENDBRANCH   2   6
ENDBRANCH   1   3
BRANCH   1  29
ATOM     29  C   SER A   4      60.331  75.318  17.489  0.00  0.00    +0.243 C 
ATOM     30  O   SER A   4      60.364  75.874  18.580  0.00  0.00    -0.273 OA
ATOM     31  N   ALA A   5      59.389  75.546  16.572  0.00  0.00    -0.297 N 
ATOM     32  H   ALA A   5      59.435  75.046  15.661  0.00  0.00    +0.150 HD
BRANCH  31  33
ATOM     33  CA  ALA A   5      58.293  76.483  16.817  0.00  0.00    +0.149 C 
ATOM     34  CB  ALA A   5      58.801  77.927  16.782  0.00  0.00    +0.031 C 
BRANCH  33  35
ATOM     35  C   ALA A   5      57.202  76.318  15.787  0.00  0.00    +0.241 C 
ATOM     36  N   GLY A   6      56.004  76.795  16.126  0.00  0.00    -0.295 N 
ATOM     37  H   GLY A   6      55.865  77.210  17.070  0.00  0.00    +0.150 HD
ATOM     38  O   ALA A   5      57.446  75.782  14.711  0.00  0.00    -0.273 OA
BRANCH  36  39
ATOM     39  CA  GLY A   6      54.898  76.744  15.202  0.00  0.00    +0.176 C 
BRANCH  39  40
ATOM     40  C   GLY A   6      54.921  78.040  14.400  0.00  0.00    +0.243 C 
ATOM     41  O   GLY A   6      54.852  79.141  14.973  0.00  0.00    -0.273 OA
ATOM     42  N   GLY A   7      55.024  77.919  13.078  0.00  0.00    -0.295 N 
ATOM     43  H   GLY A   7      55.075  76.973  12.649  0.00  0.00    +0.150 HD
BRANCH  42  44
ATOM     44  CA  GLY A   7      55.066  79.098  12.230  0.00  0.00    +0.176 C 
BRANCH  44  45
ATOM     45  C   GLY A   7      53.707  79.740  12.110  0.00  0.00    +0.243 C 
ATOM     46  N   LEU A   8      53.662  81.069  12.146  0.00  0.00    -0.298 N 
ATOM     47  H   LEU A   8      54.544  81.607  12.264  0.00  0.00    +0.150 HD
ATOM     48  O   GLY A   7      52.703  79.041  12.007  0.00  0.00    -0.273 OA
BRANCH  46  49
ATOM     49  CA  LEU A   8      52.401  81.783  12.023  0.00  0.00    +0.137 C 
BRANCH  49  50
ATOM     50  C   LEU A   8      52.447  82.762  10.832  0.00  0.00    +0.227 C 
ATOM     51  O   LEU A   8      51.428  83.005  10.186  0.00  0.00    -0.286 OA
ENDBRANCH  49  50
BRANCH  49  52
ATOM     52  CB  LEU A   8      52.096  82.533  13.327  0.00  0.00    +0.028 C 
BRANCH  52  53
ATOM     53  CG  LEU A   8      51.906  81.667  14.586  0.00  0.00    +0.002 C 
ATOM     54  CD2 LEU A   8      51.937  82.527  15.833  0.00  0.00    +0.000 C 
ATOM     55  CD1 LEU A   8      50.599  80.921  14.498  0.00  0.00    +0.000 C 
ENDBRANCH  52  53
ENDBRANCH  49  52
ENDBRANCH  46  49
ENDBRANCH  44  45
ENDBRANCH  42  44
ENDBRANCH  39  40
ENDBRANCH  36  39
ENDBRANCH  33  35
ENDBRANCH  31  33
ENDBRANCH   1  29
BRANCH   1  56
ATOM     56  CB  SER A   4      60.726  72.924  17.005  0.00  0.00    +0.166 C 
BRANCH  56  57
ATOM     57  OG  SER A   4      60.253  72.476  18.269  0.00  0.00    -0.380 OA
ATOM     58  H   SER A   4      61.013  72.412  18.900  0.00  0.00    +0.211 HD
ENDBRANCH  56  57
ENDBRANCH   1  56
TORSDOF 24
REMARK  Name = ../refined-set-2016/1y6r/1y6r_pocket.pdb
REMARK  214 active torsions:
REMARK  status: ('A' for Active; 'I' for Inactive)
REMARK    1  A    between atoms: _1  and  _3
REMARK    2  A    between atoms: _3  and  _4
REMARK    3  A    between atoms: _6  and  _8
REMARK    4  A    between atoms: _8  and  _9
REMARK    5  A    between atoms: _12  and  _14
REMARK    6  A    between atoms: _14  and  _15
REMARK    7  A    between atoms: _14  and  _17
REMARK    8  A    between atoms: _17  and  _18
REMARK    9  A    between atoms: _18  and  _19
REMARK   10  A    between atoms: _21  and  _23
REMARK   11  A    between atoms: _23  and  _24
REMARK   12  A    between atoms: _23  and  _26
REMARK   13  A    between atoms: _26  and  _27
REMARK   14  A    between atoms: _27  and  _28
REMARK   15  A    between atoms: _31  and  _33
REMARK   16  A    between atoms: _33  and  _34
REMARK   17  A    between atoms: _33  and  _36
REMARK   18  A    between atoms: _36  and  _37
REMARK   19  A    between atoms: _39  and  _41
REMARK   20  A    between atoms: _41  and  _42
REMARK   21  A    between atoms: _44  and  _46
REMARK   22  A    between atoms: _46  and  _47
REMARK   23  A    between atoms: _46  and  _49
REMARK   24  A    between atoms: _49  and  _50
REMARK   25  A    between atoms: _53  and  _55
REMARK   26  A    between atoms: _55  and  _56
REMARK   27  A    between atoms: _58  and  _60
REMARK   28  A    between atoms: _60  and  _61
REMARK   29  A    between atoms: _60  and  _63
REMARK   30  A    between atoms: _63  and  _64
REMARK   31  A    between atoms: _64  and  _65
REMARK   32  A    between atoms: _65  and  _66
REMARK   33  A    between atoms: _66  and  _67
REMARK   34  A    between atoms: _71  and  _73
REMARK   35  A    between atoms: _73  and  _74
REMARK   36  A    between atoms: _77  and  _79
REMARK   37  A    between atoms: _79  and  _80
REMARK   38  A    between atoms: _83  and  _85
REMARK   39  A    between atoms: _85  and  _86
REMARK   40  A    between atoms: _85  and  _88
REMARK   41  A    between atoms: _88  and  _89
REMARK   42  A    between atoms: _94  and  _96
REMARK   43  A    between atoms: _96  and  _97
REMARK   44  A    between atoms: _96  and  _99
REMARK   45  A    between atoms: _99  and  _100
REMARK   46  A    between atoms: _103  and  _105
REMARK   47  A    between atoms: _105  and  _106
REMARK   48  A    between atoms: _108  and  _110
REMARK   49  A    between atoms: _110  and  _111
REMARK   50  A    between atoms: _110  and  _113
REMARK   51  A    between atoms: _113  and  _114
REMARK   52  A    between atoms: _116  and  _118
REMARK   53  A    between atoms: _118  and  _119
REMARK   54  A    between atoms: _122  and  _124
REMARK   55  A    between atoms: _124  and  _125
REMARK   56  A    between atoms: _127  and  _129
REMARK   57  A    between atoms: _129  and  _130
REMARK   58  A    between atoms: _132  and  _134
REMARK   59  A    between atoms: _134  and  _135
REMARK   60  A    between atoms: _134  and  _137
REMARK   61  A    between atoms: _137  and  _138
REMARK   62  A    between atoms: _141  and  _143
REMARK   63  A    between atoms: _143  and  _144
REMARK   64  A    between atoms: _143  and  _146
REMARK   65  A    between atoms: _146  and  _147
REMARK   66  A    between atoms: _152  and  _154
REMARK   67  A    between atoms: _154  and  _155
REMARK   68  A    between atoms: _154  and  _157
REMARK   69  A    between atoms: _157  and  _158
REMARK   70  A    between atoms: _161  and  _163
REMARK   71  A    between atoms: _163  and  _164
REMARK   72  A    between atoms: _163  and  _166
REMARK   73  A    between atoms: _169  and  _171
REMARK   74  A    between atoms: _171  and  _172
REMARK   75  A    between atoms: _171  and  _174
REMARK   76  A    between atoms: _174  and  _175
REMARK   77  A    between atoms: _177  and  _179
REMARK   78  A    between atoms: _179  and  _180
REMARK   79  A    between atoms: _182  and  _184
REMARK   80  A    between atoms: _184  and  _185
REMARK   81  A    between atoms: _184  and  _187
REMARK   82  A    between atoms: _187  and  _188
REMARK   83  A    between atoms: _191  and  _193
REMARK   84  A    between atoms: _193  and  _194
REMARK   85  A    between atoms: _197  and  _199
REMARK   86  A    between atoms: _199  and  _200
REMARK   87  A    between atoms: _199  and  _202
REMARK   88  A    between atoms: _202  and  _203
REMARK   89  A    between atoms: _209  and  _211
REMARK   90  A    between atoms: _211  and  _212
REMARK   91  A    between atoms: _211  and  _214
REMARK   92  A    between atoms: _214  and  _215
REMARK   93  A    between atoms: _218  and  _220
REMARK   94  A    between atoms: _220  and  _221
REMARK   95  A    between atoms: _220  and  _223
REMARK   96  A    between atoms: _223  and  _224
REMARK   97  A    between atoms: _229  and  _231
REMARK   98  A    between atoms: _231  and  _232
REMARK   99  A    between atoms: _234  and  _236
REMARK  100  A    between atoms: _236  and  _237
REMARK  101  A    between atoms: _236  and  _239
REMARK  102  A    between atoms: _239  and  _240
REMARK  103  A    between atoms: _243  and  _245
REMARK  104  A    between atoms: _245  and  _246
REMARK  105  A    between atoms: _245  and  _248
REMARK  106  A    between atoms: _248  and  _249
REMARK  107  A    between atoms: _252  and  _254
REMARK  108  A    between atoms: _254  and  _255
REMARK  109  A    between atoms: _258  and  _260
REMARK  110  A    between atoms: _260  and  _261
REMARK  111  A    between atoms: _260  and  _263
REMARK  112  A    between atoms: _266  and  _268
REMARK  113  A    between atoms: _268  and  _269
REMARK  114  A    between atoms: _268  and  _271
REMARK  115  A    between atoms: _271  and  _272
REMARK  116  A    between atoms: _272  and  _273
REMARK  117  A    between atoms: _276  and  _278
REMARK  118  A    between atoms: _278  and  _279
REMARK  119  A    between atoms: _278  and  _281
REMARK  120  A    between atoms: _281  and  _282
REMARK  121  A    between atoms: _282  and  _283
REMARK  122  A    between atoms: _285  and  _287
REMARK  123  A    between atoms: _287  and  _288
REMARK  124  A    between atoms: _287  and  _290
REMARK  125  A    between atoms: _290  and  _291
REMARK  126  A    between atoms: _291  and  _292
REMARK  127  A    between atoms: _295  and  _297
REMARK  128  A    between atoms: _297  and  _298
REMARK  129  A    between atoms: _301  and  _303
REMARK  130  A    between atoms: _303  and  _304
REMARK  131  A    between atoms: _303  and  _306
REMARK  132  A    between atoms: _306  and  _307
REMARK  133  A    between atoms: _310  and  _312
REMARK  134  A    between atoms: _312  and  _313
REMARK  135  A    between atoms: _312  and  _315
REMARK  136  A    between atoms: _315  and  _316
REMARK  137  A    between atoms: _319  and  _321
REMARK  138  A    between atoms: _321  and  _322
REMARK  139  A    between atoms: _321  and  _324
REMARK  140  A    between atoms: _324  and  _325
REMARK  141  A    between atoms: _325  and  _326
REMARK  142  A    between atoms: _326  and  _327
REMARK  143  A    between atoms: _336  and  _338
REMARK  144  A    between atoms: _338  and  _339
REMARK  145  A    between atoms: _342  and  _344
REMARK  146  A    between atoms: _344  and  _345
REMARK  147  A    between atoms: _344  and  _347
REMARK  148  A    between atoms: _347  and  _348
REMARK  149  A    between atoms: _351  and  _353
REMARK  150  A    between atoms: _353  and  _354
REMARK  151  A    between atoms: _353  and  _356
REMARK  152  A    between atoms: _356  and  _357
REMARK  153  A    between atoms: _359  and  _361
REMARK  154  A    between atoms: _361  and  _362
REMARK  155  A    between atoms: _361  and  _364
REMARK  156  A    between atoms: _364  and  _365
REMARK  157  A    between atoms: _368  and  _370
REMARK  158  A    between atoms: _370  and  _371
REMARK  159  A    between atoms: _370  and  _373
REMARK  160  A    between atoms: _376  and  _378
REMARK  161  A    between atoms: _378  and  _379
REMARK  162  A    between atoms: _382  and  _384
REMARK  163  A    between atoms: _384  and  _385
REMARK  164  A    between atoms: _384  and  _387
REMARK  165  A    between atoms: _387  and  _388
REMARK  166  A    between atoms: _391  and  _393
REMARK  167  A    between atoms: _393  and  _394
REMARK  168  A    between atoms: _393  and  _396
REMARK  169  A    between atoms: _396  and  _397
REMARK  170  A    between atoms: _399  and  _401
REMARK  171  A    between atoms: _401  and  _402
REMARK  172  A    between atoms: _401  and  _404
REMARK  173  A    between atoms: _404  and  _405
REMARK  174  A    between atoms: _410  and  _412
REMARK  175  A    between atoms: _412  and  _413
REMARK  176  A    between atoms: _412  and  _415
REMARK  177  A    between atoms: _415  and  _416
REMARK  178  A    between atoms: _418  and  _420
REMARK  179  A    between atoms: _420  and  _421
REMARK  180  A    between atoms: _420  and  _423
REMARK  181  A    between atoms: _423  and  _424
REMARK  182  A    between atoms: _430  and  _432
REMARK  183  A    between atoms: _432  and  _433
REMARK  184  A    between atoms: _432  and  _435
REMARK  185  A    between atoms: _435  and  _436
REMARK  186  A    between atoms: _439  and  _441
REMARK  187  A    between atoms: _441  and  _442
REMARK  188  A    between atoms: _441  and  _444
REMARK  189  A    between atoms: _444  and  _445
REMARK  190  A    between atoms: _448  and  _450
REMARK  191  A    between atoms: _450  and  _451
REMARK  192  A    between atoms: _454  and  _456
REMARK  193  A    between atoms: _456  and  _457
REMARK  194  A    between atoms: _456  and  _459
REMARK  195  A    between atoms: _459  and  _460
REMARK  196  A    between atoms: _463  and  _465
REMARK  197  A    between atoms: _465  and  _466
REMARK  198  A    between atoms: _465  and  _468
REMARK  199  A    between atoms: _471  and  _473
REMARK  200  A    between atoms: _473  and  _474
REMARK  201  A    between atoms: _477  and  _479
REMARK  202  A    between atoms: _479  and  _480
REMARK  203  A    between atoms: _479  and  _482
REMARK  204  A    between atoms: _482  and  _483
REMARK  205  A    between atoms: _489  and  _491
REMARK  206  A    between atoms: _491  and  _492
REMARK  207  A    between atoms: _491  and  _494
REMARK  208  A    between atoms: _494  and  _495
REMARK  209  A    between atoms: _500  and  _501
REMARK  210  A    between atoms: _503  and  _505
REMARK  211  A    between atoms: _505  and  _506
REMARK  212  A    between atoms: _505  and  _508
REMARK  213  A    between atoms: _508  and  _509
REMARK  214  A    between atoms: _513  and  _514
REMARK                            x       y       z     vdW  Elec       q    Type
REMARK                         _______ _______ _______ _____ _____    ______ ____
ROOT
ATOM      1  CB  HIS A   1      50.097  84.119  23.330  0.00  0.00    +0.072 C 
ENDROOT
BRANCH   1   2
ATOM      2  CG  HIS A   1      50.198  82.626  23.455  0.00  0.00    +0.082 A 
ATOM      3  ND1 HIS A   1      49.181  81.849  23.968  0.00  0.00    -0.227 NA
ATOM      4  CE1 HIS A   1      49.542  80.575  23.933  0.00  0.00    +0.199 A 
ATOM      5  NE2 HIS A   1      50.758  80.499  23.418  0.00  0.00    -0.221 NA
ATOM      6  CD2 HIS A   1      51.192  81.767  23.114  0.00  0.00    +0.115 A 
ENDBRANCH   1   2
BRANCH   1   7
ATOM      7  CA  HIS A   1      50.210  84.882  24.668  0.00  0.00    +0.139 C 
BRANCH   7   8
ATOM      8  N   HIS A   1      51.522  84.720  25.301  0.00  0.00    -0.239 NA
ATOM      9  H   HIS A   1      52.050  83.828  25.220  0.00  0.00    +0.142 HD
ENDBRANCH   7   8
BRANCH   7  10
ATOM     10  C   HIS A   1      49.130  84.432  25.638  0.00  0.00    +0.224 C 
ATOM     11  O   HIS A   1      47.956  84.717  25.420  0.00  0.00    -0.287 OA
ENDBRANCH   7  10
ENDBRANCH   1   7
TORSDOF 4
REMARK  Name = ../refined-set-2016/1y6r/1y6r_pocket.pdb
REMARK  214 active torsions:
REMARK  status: ('A' for Active; 'I' for Inactive)
REMARK    1  A    between atoms: _1  and  _3
REMARK    2  A    between atoms: _3  and  _4
REMARK    3  A    between atoms: _6  and  _8
REMARK    4  A    between atoms: _8  and  _9
REMARK    5  A    between atoms: _12  and  _14
REMARK    6  A    between atoms: _14  and  _15
REMARK    7  A    between atoms: _14  and  _17
REMARK    8  A    between atoms: _17  and  _18
REMARK    9  A    between atoms: _18  and  _19
REMARK   10  A    between atoms: _21  and  _23
REMARK   11  A    between atoms: _23  and  _24
REMARK   12  A    between atoms: _23  and  _26
REMARK   13  A    between atoms: _26  and  _27
REMARK   14  A    between atoms: _27  and  _28
REMARK   15  A    between atoms: _31  and  _33
REMARK   16  A    between atoms: _33  and  _34
REMARK   17  A    between atoms: _33  and  _36
REMARK   18  A    between atoms: _36  and  _37
REMARK   19  A    between atoms: _39  and  _41
REMARK   20  A    between atoms: _41  and  _42
REMARK   21  A    between atoms: _44  and  _46
REMARK   22  A    between atoms: _46  and  _47
REMARK   23  A    between atoms: _46  and  _49
REMARK   24  A    between atoms: _49  and  _50
REMARK   25  A    between atoms: _53  and  _55
REMARK   26  A    between atoms: _55  and  _56
REMARK   27  A    between atoms: _58  and  _60
REMARK   28  A    between atoms: _60  and  _61
REMARK   29  A    between atoms: _60  and  _63
REMARK   30  A    between atoms: _63  and  _64
REMARK   31  A    between atoms: _64  and  _65
REMARK   32  A    between atoms: _65  and  _66
REMARK   33  A    between atoms: _66  and  _67
REMARK   34  A    between atoms: _71  and  _73
REMARK   35  A    between atoms: _73  and  _74
REMARK   36  A    between atoms: _77  and  _79
REMARK   37  A    between atoms: _79  and  _80
REMARK   38  A    between atoms: _83  and  _85
REMARK   39  A    between atoms: _85  and  _86
REMARK   40  A    between atoms: _85  and  _88
REMARK   41  A    between atoms: _88  and  _89
REMARK   42  A    between atoms: _94  and  _96
REMARK   43  A    between atoms: _96  and  _97
REMARK   44  A    between atoms: _96  and  _99
REMARK   45  A    between atoms: _99  and  _100
REMARK   46  A    between atoms: _103  and  _105
REMARK   47  A    between atoms: _105  and  _106
REMARK   48  A    between atoms: _108  and  _110
REMARK   49  A    between atoms: _110  and  _111
REMARK   50  A    between atoms: _110  and  _113
REMARK   51  A    between atoms: _113  and  _114
REMARK   52  A    between atoms: _116  and  _118
REMARK   53  A    between atoms: _118  and  _119
REMARK   54  A    between atoms: _122  and  _124
REMARK   55  A    between atoms: _124  and  _125
REMARK   56  A    between atoms: _127  and  _129
REMARK   57  A    between atoms: _129  and  _130
REMARK   58  A    between atoms: _132  and  _134
REMARK   59  A    between atoms: _134  and  _135
REMARK   60  A    between atoms: _134  and  _137
REMARK   61  A    between atoms: _137  and  _138
REMARK   62  A    between atoms: _141  and  _143
REMARK   63  A    between atoms: _143  and  _144
REMARK   64  A    between atoms: _143  and  _146
REMARK   65  A    between atoms: _146  and  _147
REMARK   66  A    between atoms: _152  and  _154
REMARK   67  A    between atoms: _154  and  _155
REMARK   68  A    between atoms: _154  and  _157
REMARK   69  A    between atoms: _157  and  _158
REMARK   70  A    between atoms: _161  and  _163
REMARK   71  A    between atoms: _163  and  _164
REMARK   72  A    between atoms: _163  and  _166
REMARK   73  A    between atoms: _169  and  _171
REMARK   74  A    between atoms: _171  and  _172
REMARK   75  A    between atoms: _171  and  _174
REMARK   76  A    between atoms: _174  and  _175
REMARK   77  A    between atoms: _177  and  _179
REMARK   78  A    between atoms: _179  and  _180
REMARK   79  A    between atoms: _182  and  _184
REMARK   80  A    between atoms: _184  and  _185
REMARK   81  A    between atoms: _184  and  _187
REMARK   82  A    between atoms: _187  and  _188
REMARK   83  A    between atoms: _191  and  _193
REMARK   84  A    between atoms: _193  and  _194
REMARK   85  A    between atoms: _197  and  _199
REMARK   86  A    between atoms: _199  and  _200
REMARK   87  A    between atoms: _199  and  _202
REMARK   88  A    between atoms: _202  and  _203
REMARK   89  A    between atoms: _209  and  _211
REMARK   90  A    between atoms: _211  and  _212
REMARK   91  A    between atoms: _211  and  _214
REMARK   92  A    between atoms: _214  and  _215
REMARK   93  A    between atoms: _218  and  _220
REMARK   94  A    between atoms: _220  and  _221
REMARK   95  A    between atoms: _220  and  _223
REMARK   96  A    between atoms: _223  and  _224
REMARK   97  A    between atoms: _229  and  _231
REMARK   98  A    between atoms: _231  and  _232
REMARK   99  A    between atoms: _234  and  _236
REMARK  100  A    between atoms: _236  and  _237
REMARK  101  A    between atoms: _236  and  _239
REMARK  102  A    between atoms: _239  and  _240
REMARK  103  A    between atoms: _243  and  _245
REMARK  104  A    between atoms: _245  and  _246
REMARK  105  A    between atoms: _245  and  _248
REMARK  106  A    between atoms: _248  and  _249
REMARK  107  A    between atoms: _252  and  _254
REMARK  108  A    between atoms: _254  and  _255
REMARK  109  A    between atoms: _258  and  _260
REMARK  110  A    between atoms: _260  and  _261
REMARK  111  A    between atoms: _260  and  _263
REMARK  112  A    between atoms: _266  and  _268
REMARK  113  A    between atoms: _268  and  _269
REMARK  114  A    between atoms: _268  and  _271
REMARK  115  A    between atoms: _271  and  _272
REMARK  116  A    between atoms: _272  and  _273
REMARK  117  A    between atoms: _276  and  _278
REMARK  118  A    between atoms: _278  and  _279
REMARK  119  A    between atoms: _278  and  _281
REMARK  120  A    between atoms: _281  and  _282
REMARK  121  A    between atoms: _282  and  _283
REMARK  122  A    between atoms: _285  and  _287
REMARK  123  A    between atoms: _287  and  _288
REMARK  124  A    between atoms: _287  and  _290
REMARK  125  A    between atoms: _290  and  _291
REMARK  126  A    between atoms: _291  and  _292
REMARK  127  A    between atoms: _295  and  _297
REMARK  128  A    between atoms: _297  and  _298
REMARK  129  A    between atoms: _301  and  _303
REMARK  130  A    between atoms: _303  and  _304
REMARK  131  A    between atoms: _303  and  _306
REMARK  132  A    between atoms: _306  and  _307
REMARK  133  A    between atoms: _310  and  _312
REMARK  134  A    between atoms: _312  and  _313
REMARK  135  A    between atoms: _312  and  _315
REMARK  136  A    between atoms: _315  and  _316
REMARK  137  A    between atoms: _319  and  _321
REMARK  138  A    between atoms: _321  and  _322
REMARK  139  A    between atoms: _321  and  _324
REMARK  140  A    between atoms: _324  and  _325
REMARK  141  A    between atoms: _325  and  _326
REMARK  142  A    between atoms: _326  and  _327
REMARK  143  A    between atoms: _336  and  _338
REMARK  144  A    between atoms: _338  and  _339
REMARK  145  A    between atoms: _342  and  _344
REMARK  146  A    between atoms: _344  and  _345
REMARK  147  A    between atoms: _344  and  _347
REMARK  148  A    between atoms: _347  and  _348
REMARK  149  A    between atoms: _351  and  _353
REMARK  150  A    between atoms: _353  and  _354
REMARK  151  A    between atoms: _353  and  _356
REMARK  152  A    between atoms: _356  and  _357
REMARK  153  A    between atoms: _359  and  _361
REMARK  154  A    between atoms: _361  and  _362
REMARK  155  A    between atoms: _361  and  _364
REMARK  156  A    between atoms: _364  and  _365
REMARK  157  A    between atoms: _368  and  _370
REMARK  158  A    between atoms: _370  and  _371
REMARK  159  A    between atoms: _370  and  _373
REMARK  160  A    between atoms: _376  and  _378
REMARK  161  A    between atoms: _378  and  _379
REMARK  162  A    between atoms: _382  and  _384
REMARK  163  A    between atoms: _384  and  _385
REMARK  164  A    between atoms: _384  and  _387
REMARK  165  A    between atoms: _387  and  _388
REMARK  166  A    between atoms: _391  and  _393
REMARK  167  A    between atoms: _393  and  _394
REMARK  168  A    between atoms: _393  and  _396
REMARK  169  A    between atoms: _396  and  _397
REMARK  170  A    between atoms: _399  and  _401
REMARK  171  A    between atoms: _401  and  _402
REMARK  172  A    between atoms: _401  and  _404
REMARK  173  A    between atoms: _404  and  _405
REMARK  174  A    between atoms: _410  and  _412
REMARK  175  A    between atoms: _412  and  _413
REMARK  176  A    between atoms: _412  and  _415
REMARK  177  A    between atoms: _415  and  _416
REMARK  178  A    between atoms: _418  and  _420
REMARK  179  A    between atoms: _420  and  _421
REMARK  180  A    between atoms: _420  and  _423
REMARK  181  A    between atoms: _423  and  _424
REMARK  182  A    between atoms: _430  and  _432
REMARK  183  A    between atoms: _432  and  _433
REMARK  184  A    between atoms: _432  and  _435
REMARK  185  A    between atoms: _435  and  _436
REMARK  186  A    between atoms: _439  and  _441
REMARK  187  A    between atoms: _441  and  _442
REMARK  188  A    between atoms: _441  and  _444
REMARK  189  A    between atoms: _444  and  _445
REMARK  190  A    between atoms: _448  and  _450
REMARK  191  A    between atoms: _450  and  _451
REMARK  192  A    between atoms: _454  and  _456
REMARK  193  A    between atoms: _456  and  _457
REMARK  194  A    between atoms: _456  and  _459
REMARK  195  A    between atoms: _459  and  _460
REMARK  196  A    between atoms: _463  and  _465
REMARK  197  A    between atoms: _465  and  _466
REMARK  198  A    between atoms: _465  and  _468
REMARK  199  A    between atoms: _471  and  _473
REMARK  200  A    between atoms: _473  and  _474
REMARK  201  A    between atoms: _477  and  _479
REMARK  202  A    between atoms: _479  and  _480
REMARK  203  A    between atoms: _479  and  _482
REMARK  204  A    between atoms: _482  and  _483
REMARK  205  A    between atoms: _489  and  _491
REMARK  206  A    between atoms: _491  and  _492
REMARK  207  A    between atoms: _491  and  _494
REMARK  208  A    between atoms: _494  and  _495
REMARK  209  A    between atoms: _500  and  _501
REMARK  210  A    between atoms: _503  and  _505
REMARK  211  A    between atoms: _505  and  _506
REMARK  212  A    between atoms: _505  and  _508
REMARK  213  A    between atoms: _508  and  _509
REMARK  214  A    between atoms: _513  and  _514
REMARK                            x       y       z     vdW  Elec       q    Type
REMARK                         _______ _______ _______ _____ _____    ______ ____
ROOT
ATOM      1  C   ASP A   5      51.234  75.597  27.545  0.00  0.00    +0.241 C 
ATOM      2  O   ASP A   5      50.773  74.604  28.126  0.00  0.00    -0.273 OA
ATOM      3  N   ALA A   6      50.911  75.903  26.299  0.00  0.00    -0.297 N 
ATOM      4  H   ALA A   6      51.296  76.759  25.851  0.00  0.00    +0.150 HD
ENDROOT
BRANCH   3   5
ATOM      5  CA  ALA A   6      50.011  75.028  25.564  0.00  0.00    +0.149 C 
ATOM      6  CB  ALA A   6      48.588  75.644  25.477  0.00  0.00    +0.031 C 
BRANCH   5   7
ATOM      7  C   ALA A   6      50.547  74.772  24.168  0.00  0.00    +0.241 C 
ATOM      8  N   PHE A   7      50.430  73.521  23.720  0.00  0.00    -0.297 N 
ATOM      9  H   PHE A   7      50.038  72.790  24.347  0.00  0.00    +0.150 HD
ATOM     10  O   ALA A   6      51.075  75.687  23.527  0.00  0.00    -0.273 OA
BRANCH   8  11
ATOM     11  CA  PHE A   7      50.840  73.160  22.373  0.00  0.00    +0.153 C 
BRANCH  11  12
ATOM     12  C   PHE A   7      49.681  73.531  21.438  0.00  0.00    +0.241 C 
ATOM     13  O   PHE A   7      48.642  72.874  21.447  0.00  0.00    -0.273 OA
ATOM     14  N   ILE A   8      49.866  74.587  20.649  0.00  0.00    -0.297 N 
ATOM     15  H   ILE A   8      50.785  75.073  20.685  0.00  0.00    +0.150 HD
BRANCH  14  16
ATOM     16  CA  ILE A   8      48.841  75.103  19.730  0.00  0.00    +0.149 C 
BRANCH  16  17
ATOM     17  C   ILE A   8      48.532  74.109  18.605  0.00  0.00    +0.241 C 
ATOM     18  N   ASN A   9      47.282  73.662  18.546  0.00  0.00    -0.297 N 
ATOM     19  H   ASN A   9      46.571  74.062  19.191  0.00  0.00    +0.150 HD
ATOM     20  O   ILE A   8      49.394  73.799  17.781  0.00  0.00    -0.273 OA
BRANCH  18  21
ATOM     21  CA  ASN A   9      46.879  72.620  17.596  0.00  0.00    +0.158 C 
BRANCH  21  22
ATOM     22  C   ASN A   9      45.632  73.030  16.805  0.00  0.00    +0.241 C 
ATOM     23  O   ASN A   9      44.698  72.237  16.666  0.00  0.00    -0.273 OA
ATOM     24  N   GLY A  10      45.633  74.261  16.288  0.00  0.00    -0.296 N 
ATOM     25  H   GLY A  10      46.465  74.869  16.430  0.00  0.00    +0.150 HD
BRANCH  24  26
ATOM     26  CA  GLY A  10      44.498  74.776  15.529  0.00  0.00    +0.163 C 
BRANCH  26  27
ATOM     27  C   GLY A  10      43.320  75.202  16.403  0.00  0.00    +0.229 C 
ATOM     28  O   GLY A  10      43.476  75.464  17.597  0.00  0.00    -0.286 OA
ENDBRANCH  26  27
ENDBRANCH  24  26
ENDBRANCH  21  22
BRANCH  21  29
ATOM     29  CB  ASN A   9      46.618  71.353  18.436  0.00  0.00    +0.114 C 
BRANCH  29  30
ATOM     30  CG  ASN A   9      46.446  70.084  17.613  0.00  0.00    +0.222 C 
ATOM     31  OD1 ASN A   9      45.759  69.154  18.055  0.00  0.00    -0.275 OA
ATOM     32  ND2 ASN A   9      47.074  70.019  16.445  0.00  0.00    -0.329 N 
ATOM     33 HD21 ASN A   9      47.641  70.826  16.114  0.00  0.00    +0.145 HD
ATOM     34 HD22 ASN A   9      46.999  69.161  15.861  0.00  0.00    +0.145 HD
ENDBRANCH  29  30
ENDBRANCH  21  29
ENDBRANCH  18  21
ENDBRANCH  16  17
BRANCH  16  35
ATOM     35  CB  ILE A   8      49.305  76.445  19.135  0.00  0.00    +0.027 C 
ATOM     36  CG2 ILE A   8      48.124  77.174  18.506  0.00  0.00    +0.002 C 
BRANCH  35  37
ATOM     37  CG1 ILE A   8      49.924  77.299  20.246  0.00  0.00    +0.002 C 
ATOM     38  CD1 ILE A   8      48.932  77.637  21.370  0.00  0.00    +0.000 C 
ENDBRANCH  35  37
ENDBRANCH  16  35
ENDBRANCH  14  16
ENDBRANCH  11  12
BRANCH  11  39
ATOM     39  CB  PHE A   7      51.137  71.664  22.270  0.00  0.00    +0.055 C 
BRANCH  39  40
ATOM     40  CG  PHE A   7      51.536  71.242  20.883  0.00  0.00    -0.020 A 
ATOM     41  CD2 PHE A   7      52.832  71.454  20.430  0.00  0.00    -0.004 A 
ATOM     42  CE2 PHE A   7      53.185  71.163  19.111  0.00  0.00    -0.000 A 
ATOM     43  CZ  PHE A   7      52.230  70.652  18.225  0.00  0.00    -0.000 A 
ATOM     44  CE1 PHE A   7      50.941  70.433  18.665  0.00  0.00    -0.000 A 
ATOM     45  CD1 PHE A   7      50.593  70.727  19.994  0.00  0.00    -0.004 A 
ENDBRANCH  39  40
ENDBRANCH  11  39
ENDBRANCH   8  11
ENDBRANCH   5   7
ENDBRANCH   3   5
BRANCH   1  46
ATOM     46  CA  ASP A   5      52.203  76.555  28.245  0.00  0.00    +0.160 C 
BRANCH  46  48
ATOM     47  C   GLY A   4      52.786  78.436  26.798  0.00  0.00    +0.243 C 
ATOM     48  N   ASP A   5      52.026  77.931  27.768  0.00  0.00    -0.296 N 
ATOM     49  H   ASP A   5      51.289  78.526  28.198  0.00  0.00    +0.150 HD
ATOM     50  O   GLY A   4      53.716  77.810  26.273  0.00  0.00    -0.273 OA
BRANCH  47  51
ATOM     51  CA  GLY A   4      52.512  79.864  26.361  0.00  0.00    +0.176 C 
BRANCH  51  54
ATOM     52  C   SER A   3      53.898  81.481  25.177  0.00  0.00    +0.243 C 
ATOM     53  O   SER A   3      53.337  82.461  25.686  0.00  0.00    -0.273 OA
ATOM     54  N   GLY A   4      53.577  80.215  25.437  0.00  0.00    -0.295 N 
ATOM     55  H   GLY A   4      54.105  79.454  24.964  0.00  0.00    +0.150 HD
BRANCH  52  56
ATOM     56  CA  SER A   3      55.049  81.658  24.213  0.00  0.00    +0.178 C 
BRANCH  56  58
ATOM     57  C   VAL A   2      54.937  82.980  22.178  0.00  0.00    +0.241 C 
ATOM     58  N   SER A   3      54.957  82.933  23.509  0.00  0.00    -0.295 N 
ATOM     59  H   SER A   3      54.906  83.817  24.054  0.00  0.00    +0.150 HD
ATOM     60  O   VAL A   2      54.989  81.974  21.481  0.00  0.00    -0.273 OA
BRANCH  57  61
ATOM     61  CA  VAL A   2      54.865  84.373  21.550  0.00  0.00    +0.148 C 
BRANCH  61  64
ATOM     62  C   ILE A   1      56.749  85.267  20.311  0.00  0.00    +0.238 C 
ATOM     63  O   ILE A   1      57.091  85.960  21.278  0.00  0.00    -0.274 OA
ATOM     64  N   VAL A   2      55.672  84.479  20.339  0.00  0.00    -0.297 N 
ATOM     65  H   VAL A   2      55.406  83.937  19.492  0.00  0.00    +0.150 HD
BRANCH  62  66
ATOM     66  CA  ILE A   1      57.537  85.334  18.992  0.00  0.00    +0.145 C 
BRANCH  66  67
ATOM     67  CB  ILE A   1      58.853  84.535  19.084  0.00  0.00    +0.025 C 
ATOM     68  CG2 ILE A   1      58.559  83.098  19.519  0.00  0.00    +0.002 C 
BRANCH  67  69
ATOM     69  CG1 ILE A   1      59.543  84.550  17.713  0.00  0.00    +0.002 C 
ATOM     70  CD1 ILE A   1      60.688  83.572  17.564  0.00  0.00    +0.000 C 
ENDBRANCH  67  69
ENDBRANCH  66  67
BRANCH  66  71
ATOM     71  N   ILE A   1      57.776  86.751  18.741  0.00  0.00    -0.238 NA
ATOM     72  H   ILE A   1      58.381  87.288  19.394  0.00  0.00    +0.142 HD
ENDBRANCH  66  71
ENDBRANCH  62  66
ENDBRANCH  61  64
BRANCH  61  73
ATOM     73  CB  VAL A   2      53.372  84.767  21.303  0.00  0.00    +0.027 C 
ATOM     74  CG2 VAL A   2      53.293  86.211  20.786  0.00  0.00    +0.002 C 
ATOM     75  CG1 VAL A   2      52.696  83.795  20.324  0.00  0.00    +0.002 C 
ENDBRANCH  61  73
ENDBRANCH  57  61
ENDBRANCH  56  58
BRANCH  56  76
ATOM     76  CB  SER A   3      56.348  81.573  25.021  0.00  0.00    +0.166 C 
BRANCH  76  77
ATOM     77  OG  SER A   3      57.435  82.167  24.352  0.00  0.00    -0.380 OA
ATOM     78  H   SER A   3      57.581  81.706  23.488  0.00  0.00    +0.211 HD
ENDBRANCH  76  77
ENDBRANCH  56  76
ENDBRANCH  52  56
ENDBRANCH  51  54
ENDBRANCH  47  51
ENDBRANCH  46  48
BRANCH  46  79
ATOM     79  CB  ASP A   5      52.000  76.459  29.765  0.00  0.00    +0.143 C 
BRANCH  79  80
ATOM     80  CG  ASP A   5      53.297  76.600  30.524  0.00  0.00    +0.367 C 
ATOM     81  OD2 ASP A   5      53.248  76.826  31.748  0.00  0.00    -0.246 OA
ATOM     82  OD1 ASP A   5      54.370  76.481  29.885  0.00  0.00    -0.246 OA
ENDBRANCH  79  80
ENDBRANCH  46  79
ENDBRANCH   1  46
TORSDOF 33
REMARK  Name = ../refined-set-2016/1y6r/1y6r_pocket.pdb
REMARK  214 active torsions:
REMARK  status: ('A' for Active; 'I' for Inactive)
REMARK    1  A    between atoms: _1  and  _3
REMARK    2  A    between atoms: _3  and  _4
REMARK    3  A    between atoms: _6  and  _8
REMARK    4  A    between atoms: _8  and  _9
REMARK    5  A    between atoms: _12  and  _14
REMARK    6  A    between atoms: _14  and  _15
REMARK    7  A    between atoms: _14  and  _17
REMARK    8  A    between atoms: _17  and  _18
REMARK    9  A    between atoms: _18  and  _19
REMARK   10  A    between atoms: _21  and  _23
REMARK   11  A    between atoms: _23  and  _24
REMARK   12  A    between atoms: _23  and  _26
REMARK   13  A    between atoms: _26  and  _27
REMARK   14  A    between atoms: _27  and  _28
REMARK   15  A    between atoms: _31  and  _33
REMARK   16  A    between atoms: _33  and  _34
REMARK   17  A    between atoms: _33  and  _36
REMARK   18  A    between atoms: _36  and  _37
REMARK   19  A    between atoms: _39  and  _41
REMARK   20  A    between atoms: _41  and  _42
REMARK   21  A    between atoms: _44  and  _46
REMARK   22  A    between atoms: _46  and  _47
REMARK   23  A    between atoms: _46  and  _49
REMARK   24  A    between atoms: _49  and  _50
REMARK   25  A    between atoms: _53  and  _55
REMARK   26  A    between atoms: _55  and  _56
REMARK   27  A    between atoms: _58  and  _60
REMARK   28  A    between atoms: _60  and  _61
REMARK   29  A    between atoms: _60  and  _63
REMARK   30  A    between atoms: _63  and  _64
REMARK   31  A    between atoms: _64  and  _65
REMARK   32  A    between atoms: _65  and  _66
REMARK   33  A    between atoms: _66  and  _67
REMARK   34  A    between atoms: _71  and  _73
REMARK   35  A    between atoms: _73  and  _74
REMARK   36  A    between atoms: _77  and  _79
REMARK   37  A    between atoms: _79  and  _80
REMARK   38  A    between atoms: _83  and  _85
REMARK   39  A    between atoms: _85  and  _86
REMARK   40  A    between atoms: _85  and  _88
REMARK   41  A    between atoms: _88  and  _89
REMARK   42  A    between atoms: _94  and  _96
REMARK   43  A    between atoms: _96  and  _97
REMARK   44  A    between atoms: _96  and  _99
REMARK   45  A    between atoms: _99  and  _100
REMARK   46  A    between atoms: _103  and  _105
REMARK   47  A    between atoms: _105  and  _106
REMARK   48  A    between atoms: _108  and  _110
REMARK   49  A    between atoms: _110  and  _111
REMARK   50  A    between atoms: _110  and  _113
REMARK   51  A    between atoms: _113  and  _114
REMARK   52  A    between atoms: _116  and  _118
REMARK   53  A    between atoms: _118  and  _119
REMARK   54  A    between atoms: _122  and  _124
REMARK   55  A    between atoms: _124  and  _125
REMARK   56  A    between atoms: _127  and  _129
REMARK   57  A    between atoms: _129  and  _130
REMARK   58  A    between atoms: _132  and  _134
REMARK   59  A    between atoms: _134  and  _135
REMARK   60  A    between atoms: _134  and  _137
REMARK   61  A    between atoms: _137  and  _138
REMARK   62  A    between atoms: _141  and  _143
REMARK   63  A    between atoms: _143  and  _144
REMARK   64  A    between atoms: _143  and  _146
REMARK   65  A    between atoms: _146  and  _147
REMARK   66  A    between atoms: _152  and  _154
REMARK   67  A    between atoms: _154  and  _155
REMARK   68  A    between atoms: _154  and  _157
REMARK   69  A    between atoms: _157  and  _158
REMARK   70  A    between atoms: _161  and  _163
REMARK   71  A    between atoms: _163  and  _164
REMARK   72  A    between atoms: _163  and  _166
REMARK   73  A    between atoms: _169  and  _171
REMARK   74  A    between atoms: _171  and  _172
REMARK   75  A    between atoms: _171  and  _174
REMARK   76  A    between atoms: _174  and  _175
REMARK   77  A    between atoms: _177  and  _179
REMARK   78  A    between atoms: _179  and  _180
REMARK   79  A    between atoms: _182  and  _184
REMARK   80  A    between atoms: _184  and  _185
REMARK   81  A    between atoms: _184  and  _187
REMARK   82  A    between atoms: _187  and  _188
REMARK   83  A    between atoms: _191  and  _193
REMARK   84  A    between atoms: _193  and  _194
REMARK   85  A    between atoms: _197  and  _199
REMARK   86  A    between atoms: _199  and  _200
REMARK   87  A    between atoms: _199  and  _202
REMARK   88  A    between atoms: _202  and  _203
REMARK   89  A    between atoms: _209  and  _211
REMARK   90  A    between atoms: _211  and  _212
REMARK   91  A    between atoms: _211  and  _214
REMARK   92  A    between atoms: _214  and  _215
REMARK   93  A    between atoms: _218  and  _220
REMARK   94  A    between atoms: _220  and  _221
REMARK   95  A    between atoms: _220  and  _223
REMARK   96  A    between atoms: _223  and  _224
REMARK   97  A    between atoms: _229  and  _231
REMARK   98  A    between atoms: _231  and  _232
REMARK   99  A    between atoms: _234  and  _236
REMARK  100  A    between atoms: _236  and  _237
REMARK  101  A    between atoms: _236  and  _239
REMARK  102  A    between atoms: _239  and  _240
REMARK  103  A    between atoms: _243  and  _245
REMARK  104  A    between atoms: _245  and  _246
REMARK  105  A    between atoms: _245  and  _248
REMARK  106  A    between atoms: _248  and  _249
REMARK  107  A    between atoms: _252  and  _254
REMARK  108  A    between atoms: _254  and  _255
REMARK  109  A    between atoms: _258  and  _260
REMARK  110  A    between atoms: _260  and  _261
REMARK  111  A    between atoms: _260  and  _263
REMARK  112  A    between atoms: _266  and  _268
REMARK  113  A    between atoms: _268  and  _269
REMARK  114  A    between atoms: _268  and  _271
REMARK  115  A    between atoms: _271  and  _272
REMARK  116  A    between atoms: _272  and  _273
REMARK  117  A    between atoms: _276  and  _278
REMARK  118  A    between atoms: _278  and  _279
REMARK  119  A    between atoms: _278  and  _281
REMARK  120  A    between atoms: _281  and  _282
REMARK  121  A    between atoms: _282  and  _283
REMARK  122  A    between atoms: _285  and  _287
REMARK  123  A    between atoms: _287  and  _288
REMARK  124  A    between atoms: _287  and  _290
REMARK  125  A    between atoms: _290  and  _291
REMARK  126  A    between atoms: _291  and  _292
REMARK  127  A    between atoms: _295  and  _297
REMARK  128  A    between atoms: _297  and  _298
REMARK  129  A    between atoms: _301  and  _303
REMARK  130  A    between atoms: _303  and  _304
REMARK  131  A    between atoms: _303  and  _306
REMARK  132  A    between atoms: _306  and  _307
REMARK  133  A    between atoms: _310  and  _312
REMARK  134  A    between atoms: _312  and  _313
REMARK  135  A    between atoms: _312  and  _315
REMARK  136  A    between atoms: _315  and  _316
REMARK  137  A    between atoms: _319  and  _321
REMARK  138  A    between atoms: _321  and  _322
REMARK  139  A    between atoms: _321  and  _324
REMARK  140  A    between atoms: _324  and  _325
REMARK  141  A    between atoms: _325  and  _326
REMARK  142  A    between atoms: _326  and  _327
REMARK  143  A    between atoms: _336  and  _338
REMARK  144  A    between atoms: _338  and  _339
REMARK  145  A    between atoms: _342  and  _344
REMARK  146  A    between atoms: _344  and  _345
REMARK  147  A    between atoms: _344  and  _347
REMARK  148  A    between atoms: _347  and  _348
REMARK  149  A    between atoms: _351  and  _353
REMARK  150  A    between atoms: _353  and  _354
REMARK  151  A    between atoms: _353  and  _356
REMARK  152  A    between atoms: _356  and  _357
REMARK  153  A    between atoms: _359  and  _361
REMARK  154  A    between atoms: _361  and  _362
REMARK  155  A    between atoms: _361  and  _364
REMARK  156  A    between atoms: _364  and  _365
REMARK  157  A    between atoms: _368  and  _370
REMARK  158  A    between atoms: _370  and  _371
REMARK  159  A    between atoms: _370  and  _373
REMARK  160  A    between atoms: _376  and  _378
REMARK  161  A    between atoms: _378  and  _379
REMARK  162  A    between atoms: _382  and  _384
REMARK  163  A    between atoms: _384  and  _385
REMARK  164  A    between atoms: _384  and  _387
REMARK  165  A    between atoms: _387  and  _388
REMARK  166  A    between atoms: _391  and  _393
REMARK  167  A    between atoms: _393  and  _394
REMARK  168  A    between atoms: _393  and  _396
REMARK  169  A    between atoms: _396  and  _397
REMARK  170  A    between atoms: _399  and  _401
REMARK  171  A    between atoms: _401  and  _402
REMARK  172  A    between atoms: _401  and  _404
REMARK  173  A    between atoms: _404  and  _405
REMARK  174  A    between atoms: _410  and  _412
REMARK  175  A    between atoms: _412  and  _413
REMARK  176  A    between atoms: _412  and  _415
REMARK  177  A    between atoms: _415  and  _416
REMARK  178  A    between atoms: _418  and  _420
REMARK  179  A    between atoms: _420  and  _421
REMARK  180  A    between atoms: _420  and  _423
REMARK  181  A    between atoms: _423  and  _424
REMARK  182  A    between atoms: _430  and  _432
REMARK  183  A    between atoms: _432  and  _433
REMARK  184  A    between atoms: _432  and  _435
REMARK  185  A    between atoms: _435  and  _436
REMARK  186  A    between atoms: _439  and  _441
REMARK  187  A    between atoms: _441  and  _442
REMARK  188  A    between atoms: _441  and  _444
REMARK  189  A    between atoms: _444  and  _445
REMARK  190  A    between atoms: _448  and  _450
REMARK  191  A    between atoms: _450  and  _451
REMARK  192  A    between atoms: _454  and  _456
REMARK  193  A    between atoms: _456  and  _457
REMARK  194  A    between atoms: _456  and  _459
REMARK  195  A    between atoms: _459  and  _460
REMARK  196  A    between atoms: _463  and  _465
REMARK  197  A    between atoms: _465  and  _466
REMARK  198  A    between atoms: _465  and  _468
REMARK  199  A    between atoms: _471  and  _473
REMARK  200  A    between atoms: _473  and  _474
REMARK  201  A    between atoms: _477  and  _479
REMARK  202  A    between atoms: _479  and  _480
REMARK  203  A    between atoms: _479  and  _482
REMARK  204  A    between atoms: _482  and  _483
REMARK  205  A    between atoms: _489  and  _491
REMARK  206  A    between atoms: _491  and  _492
REMARK  207  A    between atoms: _491  and  _494
REMARK  208  A    between atoms: _494  and  _495
REMARK  209  A    between atoms: _500  and  _501
REMARK  210  A    between atoms: _503  and  _505
REMARK  211  A    between atoms: _505  and  _506
REMARK  212  A    between atoms: _505  and  _508
REMARK  213  A    between atoms: _508  and  _509
REMARK  214  A    between atoms: _513  and  _514
REMARK                            x       y       z     vdW  Elec       q    Type
REMARK                         _______ _______ _______ _____ _____    ______ ____
ROOT
ATOM      1  CA  LEU A   1      45.307  79.202  17.378  0.00  0.00    +0.133 C 
ENDROOT
BRANCH   1   2
ATOM      2  N   LEU A   1      44.608  78.479  18.421  0.00  0.00    -0.239 NA
ATOM      3  H   LEU A   1      44.074  77.622  18.172  0.00  0.00    +0.142 HD
ENDBRANCH   1   2
BRANCH   1   4
ATOM      4  C   LEU A   1      44.635  80.532  17.050  0.00  0.00    +0.224 C 
ATOM      5  O   LEU A   1      45.306  81.553  16.918  0.00  0.00    -0.287 OA
ENDBRANCH   1   4
BRANCH   1   6
ATOM      6  CB  LEU A   1      45.387  78.330  16.119  0.00  0.00    +0.025 C 
BRANCH   6   7
ATOM      7  CG  LEU A   1      45.839  79.039  14.845  0.00  0.00    +0.002 C 
ATOM      8  CD2 LEU A   1      47.185  79.722  15.068  0.00  0.00    +0.000 C 
ATOM      9  CD1 LEU A   1      45.928  78.018  13.723  0.00  0.00    +0.000 C 
ENDBRANCH   6   7
ENDBRANCH   1   6
TORSDOF 4
REMARK  Name = ../refined-set-2016/1y6r/1y6r_pocket.pdb
REMARK  214 active torsions:
REMARK  status: ('A' for Active; 'I' for Inactive)
REMARK    1  A    between atoms: _1  and  _3
REMARK    2  A    between atoms: _3  and  _4
REMARK    3  A    between atoms: _6  and  _8
REMARK    4  A    between atoms: _8  and  _9
REMARK    5  A    between atoms: _12  and  _14
REMARK    6  A    between atoms: _14  and  _15
REMARK    7  A    between atoms: _14  and  _17
REMARK    8  A    between atoms: _17  and  _18
REMARK    9  A    between atoms: _18  and  _19
REMARK   10  A    between atoms: _21  and  _23
REMARK   11  A    between atoms: _23  and  _24
REMARK   12  A    between atoms: _23  and  _26
REMARK   13  A    between atoms: _26  and  _27
REMARK   14  A    between atoms: _27  and  _28
REMARK   15  A    between atoms: _31  and  _33
REMARK   16  A    between atoms: _33  and  _34
REMARK   17  A    between atoms: _33  and  _36
REMARK   18  A    between atoms: _36  and  _37
REMARK   19  A    between atoms: _39  and  _41
REMARK   20  A    between atoms: _41  and  _42
REMARK   21  A    between atoms: _44  and  _46
REMARK   22  A    between atoms: _46  and  _47
REMARK   23  A    between atoms: _46  and  _49
REMARK   24  A    between atoms: _49  and  _50
REMARK   25  A    between atoms: _53  and  _55
REMARK   26  A    between atoms: _55  and  _56
REMARK   27  A    between atoms: _58  and  _60
REMARK   28  A    between atoms: _60  and  _61
REMARK   29  A    between atoms: _60  and  _63
REMARK   30  A    between atoms: _63  and  _64
REMARK   31  A    between atoms: _64  and  _65
REMARK   32  A    between atoms: _65  and  _66
REMARK   33  A    between atoms: _66  and  _67
REMARK   34  A    between atoms: _71  and  _73
REMARK   35  A    between atoms: _73  and  _74
REMARK   36  A    between atoms: _77  and  _79
REMARK   37  A    between atoms: _79  and  _80
REMARK   38  A    between atoms: _83  and  _85
REMARK   39  A    between atoms: _85  and  _86
REMARK   40  A    between atoms: _85  and  _88
REMARK   41  A    between atoms: _88  and  _89
REMARK   42  A    between atoms: _94  and  _96
REMARK   43  A    between atoms: _96  and  _97
REMARK   44  A    between atoms: _96  and  _99
REMARK   45  A    between atoms: _99  and  _100
REMARK   46  A    between atoms: _103  and  _105
REMARK   47  A    between atoms: _105  and  _106
REMARK   48  A    between atoms: _108  and  _110
REMARK   49  A    between atoms: _110  and  _111
REMARK   50  A    between atoms: _110  and  _113
REMARK   51  A    between atoms: _113  and  _114
REMARK   52  A    between atoms: _116  and  _118
REMARK   53  A    between atoms: _118  and  _119
REMARK   54  A    between atoms: _122  and  _124
REMARK   55  A    between atoms: _124  and  _125
REMARK   56  A    between atoms: _127  and  _129
REMARK   57  A    between atoms: _129  and  _130
REMARK   58  A    between atoms: _132  and  _134
REMARK   59  A    between atoms: _134  and  _135
REMARK   60  A    between atoms: _134  and  _137
REMARK   61  A    between atoms: _137  and  _138
REMARK   62  A    between atoms: _141  and  _143
REMARK   63  A    between atoms: _143  and  _144
REMARK   64  A    between atoms: _143  and  _146
REMARK   65  A    between atoms: _146  and  _147
REMARK   66  A    between atoms: _152  and  _154
REMARK   67  A    between atoms: _154  and  _155
REMARK   68  A    between atoms: _154  and  _157
REMARK   69  A    between atoms: _157  and  _158
REMARK   70  A    between atoms: _161  and  _163
REMARK   71  A    between atoms: _163  and  _164
REMARK   72  A    between atoms: _163  and  _166
REMARK   73  A    between atoms: _169  and  _171
REMARK   74  A    between atoms: _171  and  _172
REMARK   75  A    between atoms: _171  and  _174
REMARK   76  A    between atoms: _174  and  _175
REMARK   77  A    between atoms: _177  and  _179
REMARK   78  A    between atoms: _179  and  _180
REMARK   79  A    between atoms: _182  and  _184
REMARK   80  A    between atoms: _184  and  _185
REMARK   81  A    between atoms: _184  and  _187
REMARK   82  A    between atoms: _187  and  _188
REMARK   83  A    between atoms: _191  and  _193
REMARK   84  A    between atoms: _193  and  _194
REMARK   85  A    between atoms: _197  and  _199
REMARK   86  A    between atoms: _199  and  _200
REMARK   87  A    between atoms: _199  and  _202
REMARK   88  A    between atoms: _202  and  _203
REMARK   89  A    between atoms: _209  and  _211
REMARK   90  A    between atoms: _211  and  _212
REMARK   91  A    between atoms: _211  and  _214
REMARK   92  A    between atoms: _214  and  _215
REMARK   93  A    between atoms: _218  and  _220
REMARK   94  A    between atoms: _220  and  _221
REMARK   95  A    between atoms: _220  and  _223
REMARK   96  A    between atoms: _223  and  _224
REMARK   97  A    between atoms: _229  and  _231
REMARK   98  A    between atoms: _231  and  _232
REMARK   99  A    between atoms: _234  and  _236
REMARK  100  A    between atoms: _236  and  _237
REMARK  101  A    between atoms: _236  and  _239
REMARK  102  A    between atoms: _239  and  _240
REMARK  103  A    between atoms: _243  and  _245
REMARK  104  A    between atoms: _245  and  _246
REMARK  105  A    between atoms: _245  and  _248
REMARK  106  A    between atoms: _248  and  _249
REMARK  107  A    between atoms: _252  and  _254
REMARK  108  A    between atoms: _254  and  _255
REMARK  109  A    between atoms: _258  and  _260
REMARK  110  A    between atoms: _260  and  _261
REMARK  111  A    between atoms: _260  and  _263
REMARK  112  A    between atoms: _266  and  _268
REMARK  113  A    between atoms: _268  and  _269
REMARK  114  A    between atoms: _268  and  _271
REMARK  115  A    between atoms: _271  and  _272
REMARK  116  A    between atoms: _272  and  _273
REMARK  117  A    between atoms: _276  and  _278
REMARK  118  A    between atoms: _278  and  _279
REMARK  119  A    between atoms: _278  and  _281
REMARK  120  A    between atoms: _281  and  _282
REMARK  121  A    between atoms: _282  and  _283
REMARK  122  A    between atoms: _285  and  _287
REMARK  123  A    between atoms: _287  and  _288
REMARK  124  A    between atoms: _287  and  _290
REMARK  125  A    between atoms: _290  and  _291
REMARK  126  A    between atoms: _291  and  _292
REMARK  127  A    between atoms: _295  and  _297
REMARK  128  A    between atoms: _297  and  _298
REMARK  129  A    between atoms: _301  and  _303
REMARK  130  A    between atoms: _303  and  _304
REMARK  131  A    between atoms: _303  and  _306
REMARK  132  A    between atoms: _306  and  _307
REMARK  133  A    between atoms: _310  and  _312
REMARK  134  A    between atoms: _312  and  _313
REMARK  135  A    between atoms: _312  and  _315
REMARK  136  A    between atoms: _315  and  _316
REMARK  137  A    between atoms: _319  and  _321
REMARK  138  A    between atoms: _321  and  _322
REMARK  139  A    between atoms: _321  and  _324
REMARK  140  A    between atoms: _324  and  _325
REMARK  141  A    between atoms: _325  and  _326
REMARK  142  A    between atoms: _326  and  _327
REMARK  143  A    between atoms: _336  and  _338
REMARK  144  A    between atoms: _338  and  _339
REMARK  145  A    between atoms: _342  and  _344
REMARK  146  A    between atoms: _344  and  _345
REMARK  147  A    between atoms: _344  and  _347
REMARK  148  A    between atoms: _347  and  _348
REMARK  149  A    between atoms: _351  and  _353
REMARK  150  A    between atoms: _353  and  _354
REMARK  151  A    between atoms: _353  and  _356
REMARK  152  A    between atoms: _356  and  _357
REMARK  153  A    between atoms: _359  and  _361
REMARK  154  A    between atoms: _361  and  _362
REMARK  155  A    between atoms: _361  and  _364
REMARK  156  A    between atoms: _364  and  _365
REMARK  157  A    between atoms: _368  and  _370
REMARK  158  A    between atoms: _370  and  _371
REMARK  159  A    between atoms: _370  and  _373
REMARK  160  A    between atoms: _376  and  _378
REMARK  161  A    between atoms: _378  and  _379
REMARK  162  A    between atoms: _382  and  _384
REMARK  163  A    between atoms: _384  and  _385
REMARK  164  A    between atoms: _384  and  _387
REMARK  165  A    between atoms: _387  and  _388
REMARK  166  A    between atoms: _391  and  _393
REMARK  167  A    between atoms: _393  and  _394
REMARK  168  A    between atoms: _393  and  _396
REMARK  169  A    between atoms: _396  and  _397
REMARK  170  A    between atoms: _399  and  _401
REMARK  171  A    between atoms: _401  and  _402
REMARK  172  A    between atoms: _401  and  _404
REMARK  173  A    between atoms: _404  and  _405
REMARK  174  A    between atoms: _410  and  _412
REMARK  175  A    between atoms: _412  and  _413
REMARK  176  A    between atoms: _412  and  _415
REMARK  177  A    between atoms: _415  and  _416
REMARK  178  A    between atoms: _418  and  _420
REMARK  179  A    between atoms: _420  and  _421
REMARK  180  A    between atoms: _420  and  _423
REMARK  181  A    between atoms: _423  and  _424
REMARK  182  A    between atoms: _430  and  _432
REMARK  183  A    between atoms: _432  and  _433
REMARK  184  A    between atoms: _432  and  _435
REMARK  185  A    between atoms: _435  and  _436
REMARK  186  A    between atoms: _439  and  _441
REMARK  187  A    between atoms: _441  and  _442
REMARK  188  A    between atoms: _441  and  _444
REMARK  189  A    between atoms: _444  and  _445
REMARK  190  A    between atoms: _448  and  _450
REMARK  191  A    between atoms: _450  and  _451
REMARK  192  A    between atoms: _454  and  _456
REMARK  193  A    between atoms: _456  and  _457
REMARK  194  A    between atoms: _456  and  _459
REMARK  195  A    between atoms: _459  and  _460
REMARK  196  A    between atoms: _463  and  _465
REMARK  197  A    between atoms: _465  and  _466
REMARK  198  A    between atoms: _465  and  _468
REMARK  199  A    between atoms: _471  and  _473
REMARK  200  A    between atoms: _473  and  _474
REMARK  201  A    between atoms: _477  and  _479
REMARK  202  A    between atoms: _479  and  _480
REMARK  203  A    between atoms: _479  and  _482
REMARK  204  A    between atoms: _482  and  _483
REMARK  205  A    between atoms: _489  and  _491
REMARK  206  A    between atoms: _491  and  _492
REMARK  207  A    between atoms: _491  and  _494
REMARK  208  A    between atoms: _494  and  _495
REMARK  209  A    between atoms: _500  and  _501
REMARK  210  A    between atoms: _503  and  _505
REMARK  211  A    between atoms: _505  and  _506
REMARK  212  A    between atoms: _505  and  _508
REMARK  213  A    between atoms: _508  and  _509
REMARK  214  A    between atoms: _513  and  _514
REMARK                            x       y       z     vdW  Elec       q    Type
REMARK                         _______ _______ _______ _____ _____    ______ ____
ROOT
ATOM      1  CA  ILE A   1      46.592  83.934  19.300  0.00  0.00    +0.133 C 
ENDROOT
BRANCH   1   2
ATOM      2  N   ILE A   1      45.241  83.422  19.450  0.00  0.00    -0.239 NA
ATOM      3  H   ILE A   1      45.057  82.413  19.279  0.00  0.00    +0.142 HD
ENDBRANCH   1   2
BRANCH   1   4
ATOM      4  CB  ILE A   1      47.602  82.776  19.160  0.00  0.00    +0.023 C 
ATOM      5  CG2 ILE A   1      48.960  83.299  18.750  0.00  0.00    +0.002 C 
BRANCH   4   6
ATOM      6  CG1 ILE A   1      47.714  82.036  20.490  0.00  0.00    +0.002 C 
ATOM      7  CD1 ILE A   1      48.518  80.784  20.393  0.00  0.00    +0.000 C 
ENDBRANCH   4   6
ENDBRANCH   1   4
BRANCH   1   8
ATOM      8  C   ILE A   1      46.674  84.859  18.075  0.00  0.00    +0.224 C 
ATOM      9  O   ILE A   1      47.269  85.945  18.148  0.00  0.00    -0.287 OA
ENDBRANCH   1   8
TORSDOF 4
REMARK  Name = ../refined-set-2016/1y6r/1y6r_pocket.pdb
REMARK  214 active torsions:
REMARK  status: ('A' for Active; 'I' for Inactive)
REMARK    1  A    between atoms: _1  and  _3
REMARK    2  A    between atoms: _3  and  _4
REMARK    3  A    between atoms: _6  and  _8
REMARK    4  A    between atoms: _8  and  _9
REMARK    5  A    between atoms: _12  and  _14
REMARK    6  A    between atoms: _14  and  _15
REMARK    7  A    between atoms: _14  and  _17
REMARK    8  A    between atoms: _17  and  _18
REMARK    9  A    between atoms: _18  and  _19
REMARK   10  A    between atoms: _21  and  _23
REMARK   11  A    between atoms: _23  and  _24
REMARK   12  A    between atoms: _23  and  _26
REMARK   13  A    between atoms: _26  and  _27
REMARK   14  A    between atoms: _27  and  _28
REMARK   15  A    between atoms: _31  and  _33
REMARK   16  A    between atoms: _33  and  _34
REMARK   17  A    between atoms: _33  and  _36
REMARK   18  A    between atoms: _36  and  _37
REMARK   19  A    between atoms: _39  and  _41
REMARK   20  A    between atoms: _41  and  _42
REMARK   21  A    between atoms: _44  and  _46
REMARK   22  A    between atoms: _46  and  _47
REMARK   23  A    between atoms: _46  and  _49
REMARK   24  A    between atoms: _49  and  _50
REMARK   25  A    between atoms: _53  and  _55
REMARK   26  A    between atoms: _55  and  _56
REMARK   27  A    between atoms: _58  and  _60
REMARK   28  A    between atoms: _60  and  _61
REMARK   29  A    between atoms: _60  and  _63
REMARK   30  A    between atoms: _63  and  _64
REMARK   31  A    between atoms: _64  and  _65
REMARK   32  A    between atoms: _65  and  _66
REMARK   33  A    between atoms: _66  and  _67
REMARK   34  A    between atoms: _71  and  _73
REMARK   35  A    between atoms: _73  and  _74
REMARK   36  A    between atoms: _77  and  _79
REMARK   37  A    between atoms: _79  and  _80
REMARK   38  A    between atoms: _83  and  _85
REMARK   39  A    between atoms: _85  and  _86
REMARK   40  A    between atoms: _85  and  _88
REMARK   41  A    between atoms: _88  and  _89
REMARK   42  A    between atoms: _94  and  _96
REMARK   43  A    between atoms: _96  and  _97
REMARK   44  A    between atoms: _96  and  _99
REMARK   45  A    between atoms: _99  and  _100
REMARK   46  A    between atoms: _103  and  _105
REMARK   47  A    between atoms: _105  and  _106
REMARK   48  A    between atoms: _108  and  _110
REMARK   49  A    between atoms: _110  and  _111
REMARK   50  A    between atoms: _110  and  _113
REMARK   51  A    between atoms: _113  and  _114
REMARK   52  A    between atoms: _116  and  _118
REMARK   53  A    between atoms: _118  and  _119
REMARK   54  A    between atoms: _122  and  _124
REMARK   55  A    between atoms: _124  and  _125
REMARK   56  A    between atoms: _127  and  _129
REMARK   57  A    between atoms: _129  and  _130
REMARK   58  A    between atoms: _132  and  _134
REMARK   59  A    between atoms: _134  and  _135
REMARK   60  A    between atoms: _134  and  _137
REMARK   61  A    between atoms: _137  and  _138
REMARK   62  A    between atoms: _141  and  _143
REMARK   63  A    between atoms: _143  and  _144
REMARK   64  A    between atoms: _143  and  _146
REMARK   65  A    between atoms: _146  and  _147
REMARK   66  A    between atoms: _152  and  _154
REMARK   67  A    between atoms: _154  and  _155
REMARK   68  A    between atoms: _154  and  _157
REMARK   69  A    between atoms: _157  and  _158
REMARK   70  A    between atoms: _161  and  _163
REMARK   71  A    between atoms: _163  and  _164
REMARK   72  A    between atoms: _163  and  _166
REMARK   73  A    between atoms: _169  and  _171
REMARK   74  A    between atoms: _171  and  _172
REMARK   75  A    between atoms: _171  and  _174
REMARK   76  A    between atoms: _174  and  _175
REMARK   77  A    between atoms: _177  and  _179
REMARK   78  A    between atoms: _179  and  _180
REMARK   79  A    between atoms: _182  and  _184
REMARK   80  A    between atoms: _184  and  _185
REMARK   81  A    between atoms: _184  and  _187
REMARK   82  A    between atoms: _187  and  _188
REMARK   83  A    between atoms: _191  and  _193
REMARK   84  A    between atoms: _193  and  _194
REMARK   85  A    between atoms: _197  and  _199
REMARK   86  A    between atoms: _199  and  _200
REMARK   87  A    between atoms: _199  and  _202
REMARK   88  A    between atoms: _202  and  _203
REMARK   89  A    between atoms: _209  and  _211
REMARK   90  A    between atoms: _211  and  _212
REMARK   91  A    between atoms: _211  and  _214
REMARK   92  A    between atoms: _214  and  _215
REMARK   93  A    between atoms: _218  and  _220
REMARK   94  A    between atoms: _220  and  _221
REMARK   95  A    between atoms: _220  and  _223
REMARK   96  A    between atoms: _223  and  _224
REMARK   97  A    between atoms: _229  and  _231
REMARK   98  A    between atoms: _231  and  _232
REMARK   99  A    between atoms: _234  and  _236
REMARK  100  A    between atoms: _236  and  _237
REMARK  101  A    between atoms: _236  and  _239
REMARK  102  A    between atoms: _239  and  _240
REMARK  103  A    between atoms: _243  and  _245
REMARK  104  A    between atoms: _245  and  _246
REMARK  105  A    between atoms: _245  and  _248
REMARK  106  A    between atoms: _248  and  _249
REMARK  107  A    between atoms: _252  and  _254
REMARK  108  A    between atoms: _254  and  _255
REMARK  109  A    between atoms: _258  and  _260
REMARK  110  A    between atoms: _260  and  _261
REMARK  111  A    between atoms: _260  and  _263
REMARK  112  A    between atoms: _266  and  _268
REMARK  113  A    between atoms: _268  and  _269
REMARK  114  A    between atoms: _268  and  _271
REMARK  115  A    between atoms: _271  and  _272
REMARK  116  A    between atoms: _272  and  _273
REMARK  117  A    between atoms: _276  and  _278
REMARK  118  A    between atoms: _278  and  _279
REMARK  119  A    between atoms: _278  and  _281
REMARK  120  A    between atoms: _281  and  _282
REMARK  121  A    between atoms: _282  and  _283
REMARK  122  A    between atoms: _285  and  _287
REMARK  123  A    between atoms: _287  and  _288
REMARK  124  A    between atoms: _287  and  _290
REMARK  125  A    between atoms: _290  and  _291
REMARK  126  A    between atoms: _291  and  _292
REMARK  127  A    between atoms: _295  and  _297
REMARK  128  A    between atoms: _297  and  _298
REMARK  129  A    between atoms: _301  and  _303
REMARK  130  A    between atoms: _303  and  _304
REMARK  131  A    between atoms: _303  and  _306
REMARK  132  A    between atoms: _306  and  _307
REMARK  133  A    between atoms: _310  and  _312
REMARK  134  A    between atoms: _312  and  _313
REMARK  135  A    between atoms: _312  and  _315
REMARK  136  A    between atoms: _315  and  _316
REMARK  137  A    between atoms: _319  and  _321
REMARK  138  A    between atoms: _321  and  _322
REMARK  139  A    between atoms: _321  and  _324
REMARK  140  A    between atoms: _324  and  _325
REMARK  141  A    between atoms: _325  and  _326
REMARK  142  A    between atoms: _326  and  _327
REMARK  143  A    between atoms: _336  and  _338
REMARK  144  A    between atoms: _338  and  _339
REMARK  145  A    between atoms: _342  and  _344
REMARK  146  A    between atoms: _344  and  _345
REMARK  147  A    between atoms: _344  and  _347
REMARK  148  A    between atoms: _347  and  _348
REMARK  149  A    between atoms: _351  and  _353
REMARK  150  A    between atoms: _353  and  _354
REMARK  151  A    between atoms: _353  and  _356
REMARK  152  A    between atoms: _356  and  _357
REMARK  153  A    between atoms: _359  and  _361
REMARK  154  A    between atoms: _361  and  _362
REMARK  155  A    between atoms: _361  and  _364
REMARK  156  A    between atoms: _364  and  _365
REMARK  157  A    between atoms: _368  and  _370
REMARK  158  A    between atoms: _370  and  _371
REMARK  159  A    between atoms: _370  and  _373
REMARK  160  A    between atoms: _376  and  _378
REMARK  161  A    between atoms: _378  and  _379
REMARK  162  A    between atoms: _382  and  _384
REMARK  163  A    between atoms: _384  and  _385
REMARK  164  A    between atoms: _384  and  _387
REMARK  165  A    between atoms: _387  and  _388
REMARK  166  A    between atoms: _391  and  _393
REMARK  167  A    between atoms: _393  and  _394
REMARK  168  A    between atoms: _393  and  _396
REMARK  169  A    between atoms: _396  and  _397
REMARK  170  A    between atoms: _399  and  _401
REMARK  171  A    between atoms: _401  and  _402
REMARK  172  A    between atoms: _401  and  _404
REMARK  173  A    between atoms: _404  and  _405
REMARK  174  A    between atoms: _410  and  _412
REMARK  175  A    between atoms: _412  and  _413
REMARK  176  A    between atoms: _412  and  _415
REMARK  177  A    between atoms: _415  and  _416
REMARK  178  A    between atoms: _418  and  _420
REMARK  179  A    between atoms: _420  and  _421
REMARK  180  A    between atoms: _420  and  _423
REMARK  181  A    between atoms: _423  and  _424
REMARK  182  A    between atoms: _430  and  _432
REMARK  183  A    between atoms: _432  and  _433
REMARK  184  A    between atoms: _432  and  _435
REMARK  185  A    between atoms: _435  and  _436
REMARK  186  A    between atoms: _439  and  _441
REMARK  187  A    between atoms: _441  and  _442
REMARK  188  A    between atoms: _441  and  _444
REMARK  189  A    between atoms: _444  and  _445
REMARK  190  A    between atoms: _448  and  _450
REMARK  191  A    between atoms: _450  and  _451
REMARK  192  A    between atoms: _454  and  _456
REMARK  193  A    between atoms: _456  and  _457
REMARK  194  A    between atoms: _456  and  _459
REMARK  195  A    between atoms: _459  and  _460
REMARK  196  A    between atoms: _463  and  _465
REMARK  197  A    between atoms: _465  and  _466
REMARK  198  A    between atoms: _465  and  _468
REMARK  199  A    between atoms: _471  and  _473
REMARK  200  A    between atoms: _473  and  _474
REMARK  201  A    between atoms: _477  and  _479
REMARK  202  A    between atoms: _479  and  _480
REMARK  203  A    between atoms: _479  and  _482
REMARK  204  A    between atoms: _482  and  _483
REMARK  205  A    between atoms: _489  and  _491
REMARK  206  A    between atoms: _491  and  _492
REMARK  207  A    between atoms: _491  and  _494
REMARK  208  A    between atoms: _494  and  _495
REMARK  209  A    between atoms: _500  and  _501
REMARK  210  A    between atoms: _503  and  _505
REMARK  211  A    between atoms: _505  and  _506
REMARK  212  A    between atoms: _505  and  _508
REMARK  213  A    between atoms: _508  and  _509
REMARK  214  A    between atoms: _513  and  _514
REMARK                            x       y       z     vdW  Elec       q    Type
REMARK                         _______ _______ _______ _____ _____    ______ ____
ROOT
ATOM      1  CA  MET A   4      56.674  77.342  24.892  0.00  0.00    +0.149 C 
ENDROOT
BRANCH   1   3
ATOM      2  C   GLU A   3      56.112  78.062  22.664  0.00  0.00    +0.241 C 
ATOM      3  N   MET A   4      56.920  77.359  23.448  0.00  0.00    -0.297 N 
ATOM      4  H   MET A   4      57.717  76.828  23.043  0.00  0.00    +0.150 HD
ATOM      5  O   GLU A   3      55.235  78.802  23.127  0.00  0.00    -0.273 OA
BRANCH   2   6
ATOM      6  CA  GLU A   3      56.298  77.969  21.149  0.00  0.00    +0.149 C 
BRANCH   6   8
ATOM      7  C   VAL A   2      55.181  79.075  19.304  0.00  0.00    +0.241 C 
ATOM      8  N   GLU A   3      55.659  79.127  20.541  0.00  0.00    -0.297 N 
ATOM      9  H   GLU A   3      55.576  80.010  21.085  0.00  0.00    +0.150 HD
ATOM     10  O   VAL A   2      55.314  78.085  18.581  0.00  0.00    -0.273 OA
BRANCH   7  11
ATOM     11  CA  VAL A   2      54.498  80.328  18.788  0.00  0.00    +0.148 C 
BRANCH  11  14
ATOM     12  C   ALA A   1      55.246  81.828  17.048  0.00  0.00    +0.238 C 
ATOM     13  O   ALA A   1      55.174  82.798  17.802  0.00  0.00    -0.274 OA
ATOM     14  N   VAL A   2      54.933  80.594  17.429  0.00  0.00    -0.297 N 
ATOM     15  H   VAL A   2      55.000  79.812  16.747  0.00  0.00    +0.150 HD
BRANCH  12  16
ATOM     16  CA  ALA A   1      55.724  81.995  15.612  0.00  0.00    +0.145 C 
ATOM     17  CB  ALA A   1      57.185  81.560  15.515  0.00  0.00    +0.028 C 
BRANCH  16  18
ATOM     18  N   ALA A   1      55.579  83.373  15.142  0.00  0.00    -0.238 NA
ATOM     19  H   ALA A   1      55.503  84.143  15.837  0.00  0.00    +0.142 HD
ENDBRANCH  16  18
ENDBRANCH  12  16
ENDBRANCH  11  14
BRANCH  11  20
ATOM     20  CB  VAL A   2      52.950  80.156  18.861  0.00  0.00    +0.027 C 
ATOM     21  CG2 VAL A   2      52.532  79.793  20.281  0.00  0.00    +0.002 C 
ATOM     22  CG1 VAL A   2      52.487  79.074  17.864  0.00  0.00    +0.002 C 
ENDBRANCH  11  20
ENDBRANCH   7  11
ENDBRANCH   6   8
BRANCH   6  23
ATOM     23  CB  GLU A   3      57.765  77.862  20.720  0.00  0.00    +0.041 C 
BRANCH  23  24
ATOM     24  CG  GLU A   3      58.492  79.172  20.713  0.00  0.00    +0.116 C 
BRANCH  24  25
ATOM     25  CD  GLU A   3      58.606  79.729  22.100  0.00  0.00    +0.365 C 
ATOM     26  OE2 GLU A   3      59.378  79.151  22.906  0.00  0.00    -0.246 OA
ATOM     27  OE1 GLU A   3      57.907  80.731  22.380  0.00  0.00    -0.246 OA
ENDBRANCH  24  25
ENDBRANCH  23  24
ENDBRANCH   6  23
ENDBRANCH   2   6
ENDBRANCH   1   3
BRANCH   1  28
ATOM     28  C   MET A   4      57.769  77.721  25.905  0.00  0.00    +0.241 C 
ATOM     29  O   MET A   4      57.576  77.507  27.112  0.00  0.00    -0.273 OA
ATOM     30  N   GLU A   5      58.897  78.271  25.452  0.00  0.00    -0.297 N 
ATOM     31  H   GLU A   5      59.022  78.435  24.433  0.00  0.00    +0.150 HD
BRANCH  30  32
ATOM     32  CA  GLU A   5      59.962  78.645  26.390  0.00  0.00    +0.149 C 
BRANCH  32  33
ATOM     33  C   GLU A   5      60.555  80.041  26.197  0.00  0.00    +0.241 C 
ATOM     34  O   GLU A   5      60.989  80.685  27.163  0.00  0.00    -0.273 OA
ATOM     35  N   ALA A   6      60.580  80.502  24.949  0.00  0.00    -0.297 N 
ATOM     36  H   ALA A   6      60.173  79.912  24.195  0.00  0.00    +0.150 HD
BRANCH  35  37
ATOM     37  CA  ALA A   6      61.153  81.800  24.585  0.00  0.00    +0.149 C 
ATOM     38  CB  ALA A   6      60.703  82.174  23.153  0.00  0.00    +0.031 C 
BRANCH  37  39
ATOM     39  C   ALA A   6      60.934  82.990  25.533  0.00  0.00    +0.241 C 
ATOM     40  O   ALA A   6      61.902  83.580  26.049  0.00  0.00    -0.273 OA
ATOM     41  N   THR A   7      59.683  83.355  25.772  0.00  0.00    -0.296 N 
ATOM     42  H   THR A   7      58.899  82.819  25.349  0.00  0.00    +0.150 HD
BRANCH  41  43
ATOM     43  CA  THR A   7      59.398  84.508  26.627  0.00  0.00    +0.164 C 
BRANCH  43  44
ATOM     44  CB  THR A   7      57.902  84.849  26.599  0.00  0.00    +0.136 C 
ATOM     45  CG2 THR A   7      57.633  86.188  27.297  0.00  0.00    +0.034 C 
BRANCH  44  46
ATOM     46  OG1 THR A   7      57.469  84.925  25.239  0.00  0.00    -0.382 OA
ATOM     47  HG1 THR A   7      57.622  84.053  24.796  0.00  0.00    +0.210 HD
ENDBRANCH  44  46
ENDBRANCH  43  44
BRANCH  43  48
ATOM     48  C   THR A   7      59.833  84.299  28.073  0.00  0.00    +0.229 C 
ATOM     49  O   THR A   7      60.195  85.253  28.764  0.00  0.00    -0.286 OA
ENDBRANCH  43  48
ENDBRANCH  41  43
ENDBRANCH  37  39
ENDBRANCH  35  37
ENDBRANCH  32  33
BRANCH  32  50
ATOM     50  CB  GLU A   5      61.123  77.634  26.332  0.00  0.00    +0.041 C 
BRANCH  50  51
ATOM     51  CG  GLU A   5      60.760  76.182  26.677  0.00  0.00    +0.116 C 
BRANCH  51  52
ATOM     52  CD  GLU A   5      60.079  75.448  25.505  0.00  0.00    +0.365 C 
ATOM     53  OE2 GLU A   5      59.143  74.644  25.753  0.00  0.00    -0.246 OA
ATOM     54  OE1 GLU A   5      60.506  75.678  24.343  0.00  0.00    -0.246 OA
ENDBRANCH  51  52
ENDBRANCH  50  51
ENDBRANCH  32  50
ENDBRANCH  30  32
ENDBRANCH   1  28
BRANCH   1  55
ATOM     55  CB  MET A   4      56.124  75.946  25.248  0.00  0.00    +0.041 C 
BRANCH  55  56
ATOM     56  CG  MET A   4      54.831  75.577  24.503  0.00  0.00    +0.060 C 
BRANCH  56  57
ATOM     57  SD  MET A   4      54.445  73.769  24.517  0.00  0.00    -0.139 S 
ATOM     58  CE  MET A   4      54.154  73.494  26.291  0.00  0.00    +0.069 C 
ENDBRANCH  56  57
ENDBRANCH  55  56
ENDBRANCH   1  55
TORSDOF 26
REMARK  Name = ../refined-set-2016/1y6r/1y6r_pocket.pdb
REMARK  214 active torsions:
REMARK  status: ('A' for Active; 'I' for Inactive)
REMARK    1  A    between atoms: _1  and  _3
REMARK    2  A    between atoms: _3  and  _4
REMARK    3  A    between atoms: _6  and  _8
REMARK    4  A    between atoms: _8  and  _9
REMARK    5  A    between atoms: _12  and  _14
REMARK    6  A    between atoms: _14  and  _15
REMARK    7  A    between atoms: _14  and  _17
REMARK    8  A    between atoms: _17  and  _18
REMARK    9  A    between atoms: _18  and  _19
REMARK   10  A    between atoms: _21  and  _23
REMARK   11  A    between atoms: _23  and  _24
REMARK   12  A    between atoms: _23  and  _26
REMARK   13  A    between atoms: _26  and  _27
REMARK   14  A    between atoms: _27  and  _28
REMARK   15  A    between atoms: _31  and  _33
REMARK   16  A    between atoms: _33  and  _34
REMARK   17  A    between atoms: _33  and  _36
REMARK   18  A    between atoms: _36  and  _37
REMARK   19  A    between atoms: _39  and  _41
REMARK   20  A    between atoms: _41  and  _42
REMARK   21  A    between atoms: _44  and  _46
REMARK   22  A    between atoms: _46  and  _47
REMARK   23  A    between atoms: _46  and  _49
REMARK   24  A    between atoms: _49  and  _50
REMARK   25  A    between atoms: _53  and  _55
REMARK   26  A    between atoms: _55  and  _56
REMARK   27  A    between atoms: _58  and  _60
REMARK   28  A    between atoms: _60  and  _61
REMARK   29  A    between atoms: _60  and  _63
REMARK   30  A    between atoms: _63  and  _64
REMARK   31  A    between atoms: _64  and  _65
REMARK   32  A    between atoms: _65  and  _66
REMARK   33  A    between atoms: _66  and  _67
REMARK   34  A    between atoms: _71  and  _73
REMARK   35  A    between atoms: _73  and  _74
REMARK   36  A    between atoms: _77  and  _79
REMARK   37  A    between atoms: _79  and  _80
REMARK   38  A    between atoms: _83  and  _85
REMARK   39  A    between atoms: _85  and  _86
REMARK   40  A    between atoms: _85  and  _88
REMARK   41  A    between atoms: _88  and  _89
REMARK   42  A    between atoms: _94  and  _96
REMARK   43  A    between atoms: _96  and  _97
REMARK   44  A    between atoms: _96  and  _99
REMARK   45  A    between atoms: _99  and  _100
REMARK   46  A    between atoms: _103  and  _105
REMARK   47  A    between atoms: _105  and  _106
REMARK   48  A    between atoms: _108  and  _110
REMARK   49  A    between atoms: _110  and  _111
REMARK   50  A    between atoms: _110  and  _113
REMARK   51  A    between atoms: _113  and  _114
REMARK   52  A    between atoms: _116  and  _118
REMARK   53  A    between atoms: _118  and  _119
REMARK   54  A    between atoms: _122  and  _124
REMARK   55  A    between atoms: _124  and  _125
REMARK   56  A    between atoms: _127  and  _129
REMARK   57  A    between atoms: _129  and  _130
REMARK   58  A    between atoms: _132  and  _134
REMARK   59  A    between atoms: _134  and  _135
REMARK   60  A    between atoms: _134  and  _137
REMARK   61  A    between atoms: _137  and  _138
REMARK   62  A    between atoms: _141  and  _143
REMARK   63  A    between atoms: _143  and  _144
REMARK   64  A    between atoms: _143  and  _146
REMARK   65  A    between atoms: _146  and  _147
REMARK   66  A    between atoms: _152  and  _154
REMARK   67  A    between atoms: _154  and  _155
REMARK   68  A    between atoms: _154  and  _157
REMARK   69  A    between atoms: _157  and  _158
REMARK   70  A    between atoms: _161  and  _163
REMARK   71  A    between atoms: _163  and  _164
REMARK   72  A    between atoms: _163  and  _166
REMARK   73  A    between atoms: _169  and  _171
REMARK   74  A    between atoms: _171  and  _172
REMARK   75  A    between atoms: _171  and  _174
REMARK   76  A    between atoms: _174  and  _175
REMARK   77  A    between atoms: _177  and  _179
REMARK   78  A    between atoms: _179  and  _180
REMARK   79  A    between atoms: _182  and  _184
REMARK   80  A    between atoms: _184  and  _185
REMARK   81  A    between atoms: _184  and  _187
REMARK   82  A    between atoms: _187  and  _188
REMARK   83  A    between atoms: _191  and  _193
REMARK   84  A    between atoms: _193  and  _194
REMARK   85  A    between atoms: _197  and  _199
REMARK   86  A    between atoms: _199  and  _200
REMARK   87  A    between atoms: _199  and  _202
REMARK   88  A    between atoms: _202  and  _203
REMARK   89  A    between atoms: _209  and  _211
REMARK   90  A    between atoms: _211  and  _212
REMARK   91  A    between atoms: _211  and  _214
REMARK   92  A    between atoms: _214  and  _215
REMARK   93  A    between atoms: _218  and  _220
REMARK   94  A    between atoms: _220  and  _221
REMARK   95  A    between atoms: _220  and  _223
REMARK   96  A    between atoms: _223  and  _224
REMARK   97  A    between atoms: _229  and  _231
REMARK   98  A    between atoms: _231  and  _232
REMARK   99  A    between atoms: _234  and  _236
REMARK  100  A    between atoms: _236  and  _237
REMARK  101  A    between atoms: _236  and  _239
REMARK  102  A    between atoms: _239  and  _240
REMARK  103  A    between atoms: _243  and  _245
REMARK  104  A    between atoms: _245  and  _246
REMARK  105  A    between atoms: _245  and  _248
REMARK  106  A    between atoms: _248  and  _249
REMARK  107  A    between atoms: _252  and  _254
REMARK  108  A    between atoms: _254  and  _255
REMARK  109  A    between atoms: _258  and  _260
REMARK  110  A    between atoms: _260  and  _261
REMARK  111  A    between atoms: _260  and  _263
REMARK  112  A    between atoms: _266  and  _268
REMARK  113  A    between atoms: _268  and  _269
REMARK  114  A    between atoms: _268  and  _271
REMARK  115  A    between atoms: _271  and  _272
REMARK  116  A    between atoms: _272  and  _273
REMARK  117  A    between atoms: _276  and  _278
REMARK  118  A    between atoms: _278  and  _279
REMARK  119  A    between atoms: _278  and  _281
REMARK  120  A    between atoms: _281  and  _282
REMARK  121  A    between atoms: _282  and  _283
REMARK  122  A    between atoms: _285  and  _287
REMARK  123  A    between atoms: _287  and  _288
REMARK  124  A    between atoms: _287  and  _290
REMARK  125  A    between atoms: _290  and  _291
REMARK  126  A    between atoms: _291  and  _292
REMARK  127  A    between atoms: _295  and  _297
REMARK  128  A    between atoms: _297  and  _298
REMARK  129  A    between atoms: _301  and  _303
REMARK  130  A    between atoms: _303  and  _304
REMARK  131  A    between atoms: _303  and  _306
REMARK  132  A    between atoms: _306  and  _307
REMARK  133  A    between atoms: _310  and  _312
REMARK  134  A    between atoms: _312  and  _313
REMARK  135  A    between atoms: _312  and  _315
REMARK  136  A    between atoms: _315  and  _316
REMARK  137  A    between atoms: _319  and  _321
REMARK  138  A    between atoms: _321  and  _322
REMARK  139  A    between atoms: _321  and  _324
REMARK  140  A    between atoms: _324  and  _325
REMARK  141  A    between atoms: _325  and  _326
REMARK  142  A    between atoms: _326  and  _327
REMARK  143  A    between atoms: _336  and  _338
REMARK  144  A    between atoms: _338  and  _339
REMARK  145  A    between atoms: _342  and  _344
REMARK  146  A    between atoms: _344  and  _345
REMARK  147  A    between atoms: _344  and  _347
REMARK  148  A    between atoms: _347  and  _348
REMARK  149  A    between atoms: _351  and  _353
REMARK  150  A    between atoms: _353  and  _354
REMARK  151  A    between atoms: _353  and  _356
REMARK  152  A    between atoms: _356  and  _357
REMARK  153  A    between atoms: _359  and  _361
REMARK  154  A    between atoms: _361  and  _362
REMARK  155  A    between atoms: _361  and  _364
REMARK  156  A    between atoms: _364  and  _365
REMARK  157  A    between atoms: _368  and  _370
REMARK  158  A    between atoms: _370  and  _371
REMARK  159  A    between atoms: _370  and  _373
REMARK  160  A    between atoms: _376  and  _378
REMARK  161  A    between atoms: _378  and  _379
REMARK  162  A    between atoms: _382  and  _384
REMARK  163  A    between atoms: _384  and  _385
REMARK  164  A    between atoms: _384  and  _387
REMARK  165  A    between atoms: _387  and  _388
REMARK  166  A    between atoms: _391  and  _393
REMARK  167  A    between atoms: _393  and  _394
REMARK  168  A    between atoms: _393  and  _396
REMARK  169  A    between atoms: _396  and  _397
REMARK  170  A    between atoms: _399  and  _401
REMARK  171  A    between atoms: _401  and  _402
REMARK  172  A    between atoms: _401  and  _404
REMARK  173  A    between atoms: _404  and  _405
REMARK  174  A    between atoms: _410  and  _412
REMARK  175  A    between atoms: _412  and  _413
REMARK  176  A    between atoms: _412  and  _415
REMARK  177  A    between atoms: _415  and  _416
REMARK  178  A    between atoms: _418  and  _420
REMARK  179  A    between atoms: _420  and  _421
REMARK  180  A    between atoms: _420  and  _423
REMARK  181  A    between atoms: _423  and  _424
REMARK  182  A    between atoms: _430  and  _432
REMARK  183  A    between atoms: _432  and  _433
REMARK  184  A    between atoms: _432  and  _435
REMARK  185  A    between atoms: _435  and  _436
REMARK  186  A    between atoms: _439  and  _441
REMARK  187  A    between atoms: _441  and  _442
REMARK  188  A    between atoms: _441  and  _444
REMARK  189  A    between atoms: _444  and  _445
REMARK  190  A    between atoms: _448  and  _450
REMARK  191  A    between atoms: _450  and  _451
REMARK  192  A    between atoms: _454  and  _456
REMARK  193  A    between atoms: _456  and  _457
REMARK  194  A    between atoms: _456  and  _459
REMARK  195  A    between atoms: _459  and  _460
REMARK  196  A    between atoms: _463  and  _465
REMARK  197  A    between atoms: _465  and  _466
REMARK  198  A    between atoms: _465  and  _468
REMARK  199  A    between atoms: _471  and  _473
REMARK  200  A    between atoms: _473  and  _474
REMARK  201  A    between atoms: _477  and  _479
REMARK  202  A    between atoms: _479  and  _480
REMARK  203  A    between atoms: _479  and  _482
REMARK  204  A    between atoms: _482  and  _483
REMARK  205  A    between atoms: _489  and  _491
REMARK  206  A    between atoms: _491  and  _492
REMARK  207  A    between atoms: _491  and  _494
REMARK  208  A    between atoms: _494  and  _495
REMARK  209  A    between atoms: _500  and  _501
REMARK  210  A    between atoms: _503  and  _505
REMARK  211  A    between atoms: _505  and  _506
REMARK  212  A    between atoms: _505  and  _508
REMARK  213  A    between atoms: _508  and  _509
REMARK  214  A    between atoms: _513  and  _514
REMARK                            x       y       z     vdW  Elec       q    Type
REMARK                         _______ _______ _______ _____ _____    ______ ____
ROOT
ATOM      1  CA  ILE A   1      63.892  82.806  28.906  0.00  0.00    +0.133 C 
ENDROOT
BRANCH   1   2
ATOM      2  N   ILE A   1      62.439  82.597  28.946  0.00  0.00    -0.239 NA
ATOM      3  H   ILE A   1      61.972  82.134  28.140  0.00  0.00    +0.142 HD
ENDBRANCH   1   2
BRANCH   1   4
ATOM      4  C   ILE A   1      64.186  84.319  28.801  0.00  0.00    +0.224 C 
ATOM      5  O   ILE A   1      65.047  84.841  29.503  0.00  0.00    -0.287 OA
ENDBRANCH   1   4
BRANCH   1   6
ATOM      6  CB  ILE A   1      64.521  82.059  27.691  0.00  0.00    +0.023 C 
ATOM      7  CG2 ILE A   1      66.022  82.423  27.546  0.00  0.00    +0.002 C 
BRANCH   6   8
ATOM      8  CG1 ILE A   1      64.336  80.540  27.873  0.00  0.00    +0.002 C 
ATOM      9  CD1 ILE A   1      64.619  79.690  26.618  0.00  0.00    +0.000 C 
ENDBRANCH   6   8
ENDBRANCH   1   6
TORSDOF 4
REMARK  Name = ../refined-set-2016/1y6r/1y6r_pocket.pdb
REMARK  214 active torsions:
REMARK  status: ('A' for Active; 'I' for Inactive)
REMARK    1  A    between atoms: _1  and  _3
REMARK    2  A    between atoms: _3  and  _4
REMARK    3  A    between atoms: _6  and  _8
REMARK    4  A    between atoms: _8  and  _9
REMARK    5  A    between atoms: _12  and  _14
REMARK    6  A    between atoms: _14  and  _15
REMARK    7  A    between atoms: _14  and  _17
REMARK    8  A    between atoms: _17  and  _18
REMARK    9  A    between atoms: _18  and  _19
REMARK   10  A    between atoms: _21  and  _23
REMARK   11  A    between atoms: _23  and  _24
REMARK   12  A    between atoms: _23  and  _26
REMARK   13  A    between atoms: _26  and  _27
REMARK   14  A    between atoms: _27  and  _28
REMARK   15  A    between atoms: _31  and  _33
REMARK   16  A    between atoms: _33  and  _34
REMARK   17  A    between atoms: _33  and  _36
REMARK   18  A    between atoms: _36  and  _37
REMARK   19  A    between atoms: _39  and  _41
REMARK   20  A    between atoms: _41  and  _42
REMARK   21  A    between atoms: _44  and  _46
REMARK   22  A    between atoms: _46  and  _47
REMARK   23  A    between atoms: _46  and  _49
REMARK   24  A    between atoms: _49  and  _50
REMARK   25  A    between atoms: _53  and  _55
REMARK   26  A    between atoms: _55  and  _56
REMARK   27  A    between atoms: _58  and  _60
REMARK   28  A    between atoms: _60  and  _61
REMARK   29  A    between atoms: _60  and  _63
REMARK   30  A    between atoms: _63  and  _64
REMARK   31  A    between atoms: _64  and  _65
REMARK   32  A    between atoms: _65  and  _66
REMARK   33  A    between atoms: _66  and  _67
REMARK   34  A    between atoms: _71  and  _73
REMARK   35  A    between atoms: _73  and  _74
REMARK   36  A    between atoms: _77  and  _79
REMARK   37  A    between atoms: _79  and  _80
REMARK   38  A    between atoms: _83  and  _85
REMARK   39  A    between atoms: _85  and  _86
REMARK   40  A    between atoms: _85  and  _88
REMARK   41  A    between atoms: _88  and  _89
REMARK   42  A    between atoms: _94  and  _96
REMARK   43  A    between atoms: _96  and  _97
REMARK   44  A    between atoms: _96  and  _99
REMARK   45  A    between atoms: _99  and  _100
REMARK   46  A    between atoms: _103  and  _105
REMARK   47  A    between atoms: _105  and  _106
REMARK   48  A    between atoms: _108  and  _110
REMARK   49  A    between atoms: _110  and  _111
REMARK   50  A    between atoms: _110  and  _113
REMARK   51  A    between atoms: _113  and  _114
REMARK   52  A    between atoms: _116  and  _118
REMARK   53  A    between atoms: _118  and  _119
REMARK   54  A    between atoms: _122  and  _124
REMARK   55  A    between atoms: _124  and  _125
REMARK   56  A    between atoms: _127  and  _129
REMARK   57  A    between atoms: _129  and  _130
REMARK   58  A    between atoms: _132  and  _134
REMARK   59  A    between atoms: _134  and  _135
REMARK   60  A    between atoms: _134  and  _137
REMARK   61  A    between atoms: _137  and  _138
REMARK   62  A    between atoms: _141  and  _143
REMARK   63  A    between atoms: _143  and  _144
REMARK   64  A    between atoms: _143  and  _146
REMARK   65  A    between atoms: _146  and  _147
REMARK   66  A    between atoms: _152  and  _154
REMARK   67  A    between atoms: _154  and  _155
REMARK   68  A    between atoms: _154  and  _157
REMARK   69  A    between atoms: _157  and  _158
REMARK   70  A    between atoms: _161  and  _163
REMARK   71  A    between atoms: _163  and  _164
REMARK   72  A    between atoms: _163  and  _166
REMARK   73  A    between atoms: _169  and  _171
REMARK   74  A    between atoms: _171  and  _172
REMARK   75  A    between atoms: _171  and  _174
REMARK   76  A    between atoms: _174  and  _175
REMARK   77  A    between atoms: _177  and  _179
REMARK   78  A    between atoms: _179  and  _180
REMARK   79  A    between atoms: _182  and  _184
REMARK   80  A    between atoms: _184  and  _185
REMARK   81  A    between atoms: _184  and  _187
REMARK   82  A    between atoms: _187  and  _188
REMARK   83  A    between atoms: _191  and  _193
REMARK   84  A    between atoms: _193  and  _194
REMARK   85  A    between atoms: _197  and  _199
REMARK   86  A    between atoms: _199  and  _200
REMARK   87  A    between atoms: _199  and  _202
REMARK   88  A    between atoms: _202  and  _203
REMARK   89  A    between atoms: _209  and  _211
REMARK   90  A    between atoms: _211  and  _212
REMARK   91  A    between atoms: _211  and  _214
REMARK   92  A    between atoms: _214  and  _215
REMARK   93  A    between atoms: _218  and  _220
REMARK   94  A    between atoms: _220  and  _221
REMARK   95  A    between atoms: _220  and  _223
REMARK   96  A    between atoms: _223  and  _224
REMARK   97  A    between atoms: _229  and  _231
REMARK   98  A    between atoms: _231  and  _232
REMARK   99  A    between atoms: _234  and  _236
REMARK  100  A    between atoms: _236  and  _237
REMARK  101  A    between atoms: _236  and  _239
REMARK  102  A    between atoms: _239  and  _240
REMARK  103  A    between atoms: _243  and  _245
REMARK  104  A    between atoms: _245  and  _246
REMARK  105  A    between atoms: _245  and  _248
REMARK  106  A    between atoms: _248  and  _249
REMARK  107  A    between atoms: _252  and  _254
REMARK  108  A    between atoms: _254  and  _255
REMARK  109  A    between atoms: _258  and  _260
REMARK  110  A    between atoms: _260  and  _261
REMARK  111  A    between atoms: _260  and  _263
REMARK  112  A    between atoms: _266  and  _268
REMARK  113  A    between atoms: _268  and  _269
REMARK  114  A    between atoms: _268  and  _271
REMARK  115  A    between atoms: _271  and  _272
REMARK  116  A    between atoms: _272  and  _273
REMARK  117  A    between atoms: _276  and  _278
REMARK  118  A    between atoms: _278  and  _279
REMARK  119  A    between atoms: _278  and  _281
REMARK  120  A    between atoms: _281  and  _282
REMARK  121  A    between atoms: _282  and  _283
REMARK  122  A    between atoms: _285  and  _287
REMARK  123  A    between atoms: _287  and  _288
REMARK  124  A    between atoms: _287  and  _290
REMARK  125  A    between atoms: _290  and  _291
REMARK  126  A    between atoms: _291  and  _292
REMARK  127  A    between atoms: _295  and  _297
REMARK  128  A    between atoms: _297  and  _298
REMARK  129  A    between atoms: _301  and  _303
REMARK  130  A    between atoms: _303  and  _304
REMARK  131  A    between atoms: _303  and  _306
REMARK  132  A    between atoms: _306  and  _307
REMARK  133  A    between atoms: _310  and  _312
REMARK  134  A    between atoms: _312  and  _313
REMARK  135  A    between atoms: _312  and  _315
REMARK  136  A    between atoms: _315  and  _316
REMARK  137  A    between atoms: _319  and  _321
REMARK  138  A    between atoms: _321  and  _322
REMARK  139  A    between atoms: _321  and  _324
REMARK  140  A    between atoms: _324  and  _325
REMARK  141  A    between atoms: _325  and  _326
REMARK  142  A    between atoms: _326  and  _327
REMARK  143  A    between atoms: _336  and  _338
REMARK  144  A    between atoms: _338  and  _339
REMARK  145  A    between atoms: _342  and  _344
REMARK  146  A    between atoms: _344  and  _345
REMARK  147  A    between atoms: _344  and  _347
REMARK  148  A    between atoms: _347  and  _348
REMARK  149  A    between atoms: _351  and  _353
REMARK  150  A    between atoms: _353  and  _354
REMARK  151  A    between atoms: _353  and  _356
REMARK  152  A    between atoms: _356  and  _357
REMARK  153  A    between atoms: _359  and  _361
REMARK  154  A    between atoms: _361  and  _362
REMARK  155  A    between atoms: _361  and  _364
REMARK  156  A    between atoms: _364  and  _365
REMARK  157  A    between atoms: _368  and  _370
REMARK  158  A    between atoms: _370  and  _371
REMARK  159  A    between atoms: _370  and  _373
REMARK  160  A    between atoms: _376  and  _378
REMARK  161  A    between atoms: _378  and  _379
REMARK  162  A    between atoms: _382  and  _384
REMARK  163  A    between atoms: _384  and  _385
REMARK  164  A    between atoms: _384  and  _387
REMARK  165  A    between atoms: _387  and  _388
REMARK  166  A    between atoms: _391  and  _393
REMARK  167  A    between atoms: _393  and  _394
REMARK  168  A    between atoms: _393  and  _396
REMARK  169  A    between atoms: _396  and  _397
REMARK  170  A    between atoms: _399  and  _401
REMARK  171  A    between atoms: _401  and  _402
REMARK  172  A    between atoms: _401  and  _404
REMARK  173  A    between atoms: _404  and  _405
REMARK  174  A    between atoms: _410  and  _412
REMARK  175  A    between atoms: _412  and  _413
REMARK  176  A    between atoms: _412  and  _415
REMARK  177  A    between atoms: _415  and  _416
REMARK  178  A    between atoms: _418  and  _420
REMARK  179  A    between atoms: _420  and  _421
REMARK  180  A    between atoms: _420  and  _423
REMARK  181  A    between atoms: _423  and  _424
REMARK  182  A    between atoms: _430  and  _432
REMARK  183  A    between atoms: _432  and  _433
REMARK  184  A    between atoms: _432  and  _435
REMARK  185  A    between atoms: _435  and  _436
REMARK  186  A    between atoms: _439  and  _441
REMARK  187  A    between atoms: _441  and  _442
REMARK  188  A    between atoms: _441  and  _444
REMARK  189  A    between atoms: _444  and  _445
REMARK  190  A    between atoms: _448  and  _450
REMARK  191  A    between atoms: _450  and  _451
REMARK  192  A    between atoms: _454  and  _456
REMARK  193  A    between atoms: _456  and  _457
REMARK  194  A    between atoms: _456  and  _459
REMARK  195  A    between atoms: _459  and  _460
REMARK  196  A    between atoms: _463  and  _465
REMARK  197  A    between atoms: _465  and  _466
REMARK  198  A    between atoms: _465  and  _468
REMARK  199  A    between atoms: _471  and  _473
REMARK  200  A    between atoms: _473  and  _474
REMARK  201  A    between atoms: _477  and  _479
REMARK  202  A    between atoms: _479  and  _480
REMARK  203  A    between atoms: _479  and  _482
REMARK  204  A    between atoms: _482  and  _483
REMARK  205  A    between atoms: _489  and  _491
REMARK  206  A    between atoms: _491  and  _492
REMARK  207  A    between atoms: _491  and  _494
REMARK  208  A    between atoms: _494  and  _495
REMARK  209  A    between atoms: _500  and  _501
REMARK  210  A    between atoms: _503  and  _505
REMARK  211  A    between atoms: _505  and  _506
REMARK  212  A    between atoms: _505  and  _508
REMARK  213  A    between atoms: _508  and  _509
REMARK  214  A    between atoms: _513  and  _514
REMARK                            x       y       z     vdW  Elec       q    Type
REMARK                         _______ _______ _______ _____ _____    ______ ____
ROOT
ATOM      1  CA  SER A   4      58.326  72.300  12.666  0.00  0.00    +0.178 C 
ENDROOT
BRANCH   1   3
ATOM      2  C   ILE A   3      59.430  74.305  11.778  0.00  0.00    +0.241 C 
ATOM      3  N   SER A   4      58.637  73.729  12.681  0.00  0.00    -0.295 N 
ATOM      4  H   SER A   4      58.222  74.321  13.428  0.00  0.00    +0.150 HD
ATOM      5  O   ILE A   3      59.968  73.681  10.861  0.00  0.00    -0.273 OA
BRANCH   2   6
ATOM      6  CA  ILE A   3      59.631  75.821  11.940  0.00  0.00    +0.149 C 
BRANCH   6   9
ATOM      7  C   ALA A   2      61.758  76.038  13.107  0.00  0.00    +0.241 C 
ATOM      8  O   ALA A   2      61.370  75.339  14.048  0.00  0.00    -0.273 OA
ATOM      9  N   ILE A   3      61.004  76.292  12.043  0.00  0.00    -0.297 N 
ATOM     10  H   ILE A   3      61.407  76.844  11.260  0.00  0.00    +0.150 HD
BRANCH   7  11
ATOM     11  CA  ALA A   2      63.165  76.655  13.106  0.00  0.00    +0.149 C 
ATOM     12  CB  ALA A   2      64.193  75.668  12.600  0.00  0.00    +0.031 C 
BRANCH  11  14
ATOM     13  C   ARG A   1      63.946  78.317  14.695  0.00  0.00    +0.238 C 
ATOM     14  N   ALA A   2      63.516  77.082  14.458  0.00  0.00    -0.297 N 
ATOM     15  H   ALA A   2      63.428  76.410  15.247  0.00  0.00    +0.150 HD
ATOM     16  O   ARG A   1      64.084  79.160  13.808  0.00  0.00    -0.274 OA
BRANCH  13  17
ATOM     17  CA  ARG A   1      64.266  78.644  16.140  0.00  0.00    +0.145 C 
BRANCH  17  18
ATOM     18  N   ARG A   1      64.878  79.962  16.262  0.00  0.00    -0.238 NA
ATOM     19  H   ARG A   1      64.313  80.808  16.048  0.00  0.00    +0.142 HD
ENDBRANCH  17  18
BRANCH  17  20
ATOM     20  CB  ARG A   1      62.983  78.582  16.992  0.00  0.00    +0.030 C 
BRANCH  20  21
ATOM     21  CG  ARG A   1      63.242  78.544  18.510  0.00  0.00    +0.045 C 
BRANCH  21  22
ATOM     22  CD  ARG A   1      61.960  78.794  19.312  0.00  0.00    +0.174 C 
BRANCH  22  23
ATOM     23  NE  ARG A   1      62.125  78.683  20.764  0.00  0.00    -0.265 N 
ATOM     24  CZ  ARG A   1      61.836  77.599  21.477  0.00  0.00    +0.342 C 
ATOM     25  NH2 ARG A   1      62.009  77.596  22.794  0.00  0.00    -0.292 N 
ATOM     26 HH21 ARG A   1      61.781  76.745  23.346  0.00  0.00    +0.255 HD
ATOM     27 HH22 ARG A   1      62.372  78.445  23.273  0.00  0.00    +0.255 HD
ATOM     28  NH1 ARG A   1      61.368  76.516  20.877  0.00  0.00    -0.292 N 
ATOM     29 HH11 ARG A   1      61.142  75.668  21.436  0.00  0.00    +0.255 HD
ATOM     30 HH12 ARG A   1      61.226  76.513  19.847  0.00  0.00    +0.255 HD
ATOM     31  HE  ARG A   1      62.495  79.511  21.273  0.00  0.00    +0.259 HD
ENDBRANCH  22  23
ENDBRANCH  21  22
ENDBRANCH  20  21
ENDBRANCH  17  20
ENDBRANCH  13  17
ENDBRANCH  11  14
ENDBRANCH   7  11
ENDBRANCH   6   9
BRANCH   6  32
ATOM     32  CB  ILE A   3      58.909  76.587  10.794  0.00  0.00    +0.027 C 
ATOM     33  CG2 ILE A   3      57.451  76.201  10.723  0.00  0.00    +0.002 C 
BRANCH  32  34
ATOM     34  CG1 ILE A   3      59.021  78.100  11.038  0.00  0.00    +0.002 C 
ATOM     35  CD1 ILE A   3      58.594  78.536  12.457  0.00  0.00    +0.000 C 
ENDBRANCH  32  34
ENDBRANCH   6  32
ENDBRANCH   2   6
ENDBRANCH   1   3
BRANCH   1  36
ATOM     36  C   SER A   4      56.836  72.007  12.343  0.00  0.00    +0.243 C 
ATOM     37  N   ASP A   5      56.007  73.044  12.302  0.00  0.00    -0.296 N 
ATOM     38  H   ASP A   5      56.391  74.001  12.439  0.00  0.00    +0.150 HD
ATOM     39  O   SER A   4      56.455  70.851  12.137  0.00  0.00    -0.273 OA
BRANCH  37  40
ATOM     40  CA  ASP A   5      54.567  72.883  12.069  0.00  0.00    +0.160 C 
BRANCH  40  41
ATOM     41  C   ASP A   5      53.976  74.271  11.970  0.00  0.00    +0.241 C 
ATOM     42  O   ASP A   5      54.654  75.250  12.266  0.00  0.00    -0.273 OA
ATOM     43  N   VAL A   6      52.714  74.377  11.577  0.00  0.00    -0.297 N 
ATOM     44  H   VAL A   6      52.158  73.528  11.351  0.00  0.00    +0.150 HD
BRANCH  43  45
ATOM     45  CA  VAL A   6      52.117  75.707  11.467  0.00  0.00    +0.149 C 
BRANCH  45  46
ATOM     46  C   VAL A   6      50.997  75.916  12.470  0.00  0.00    +0.241 C 
ATOM     47  N   ALA A   7      51.097  75.211  13.594  0.00  0.00    -0.297 N 
ATOM     48  H   ALA A   7      51.896  74.553  13.695  0.00  0.00    +0.150 HD
ATOM     49  O   VAL A   6      50.063  76.673  12.228  0.00  0.00    -0.273 OA
BRANCH  47  50
ATOM     50  CA  ALA A   7      50.138  75.316  14.695  0.00  0.00    +0.149 C 
ATOM     51  CB  ALA A   7      50.291  76.683  15.375  0.00  0.00    +0.031 C 
BRANCH  50  52
ATOM     52  C   ALA A   7      48.667  75.082  14.368  0.00  0.00    +0.241 C 
ATOM     53  O   ALA A   7      47.792  75.572  15.083  0.00  0.00    -0.273 OA
ATOM     54  N   ASP A   8      48.381  74.339  13.307  0.00  0.00    -0.298 N 
ATOM     55  H   ASP A   8      49.149  73.952  12.722  0.00  0.00    +0.150 HD
BRANCH  54  56
ATOM     56  CA  ASP A   8      46.986  74.063  12.958  0.00  0.00    +0.148 C 
BRANCH  56  57
ATOM     57  C   ASP A   8      46.538  72.669  13.434  0.00  0.00    +0.227 C 
ATOM     58  O   ASP A   8      47.238  72.001  14.208  0.00  0.00    -0.286 OA
ENDBRANCH  56  57
BRANCH  56  59
ATOM     59  CB  ASP A   8      46.792  74.198  11.439  0.00  0.00    +0.142 C 
BRANCH  59  60
ATOM     60  CG  ASP A   8      47.652  73.224  10.648  0.00  0.00    +0.367 C 
ATOM     61  OD2 ASP A   8      48.249  72.314  11.263  0.00  0.00    -0.246 OA
ATOM     62  OD1 ASP A   8      47.726  73.367   9.405  0.00  0.00    -0.246 OA
ENDBRANCH  59  60
ENDBRANCH  56  59
ENDBRANCH  54  56
ENDBRANCH  50  52
ENDBRANCH  47  50
ENDBRANCH  45  46
BRANCH  45  63
ATOM     63  CB  VAL A   6      51.607  75.986  10.022  0.00  0.00    +0.027 C 
ATOM     64  CG2 VAL A   6      50.528  74.967   9.631  0.00  0.00    +0.002 C 
ATOM     65  CG1 VAL A   6      52.773  75.920   9.043  0.00  0.00    +0.002 C 
ENDBRANCH  45  63
ENDBRANCH  43  45
ENDBRANCH  40  41
BRANCH  40  66
ATOM     66  CB  ASP A   5      53.927  72.163  13.261  0.00  0.00    +0.143 C 
BRANCH  66  67
ATOM     67  CG  ASP A   5      54.112  72.936  14.574  0.00  0.00    +0.367 C 
ATOM     68  OD2 ASP A   5      55.076  72.634  15.292  0.00  0.00    -0.246 OA
ATOM     69  OD1 ASP A   5      53.322  73.858  14.877  0.00  0.00    -0.246 OA
ENDBRANCH  66  67
ENDBRANCH  40  66
ENDBRANCH  37  40
ENDBRANCH   1  36
BRANCH   1  70
ATOM     70  CB  SER A   4      58.649  71.700  14.039  0.00  0.00    +0.166 C 
BRANCH  70  71
ATOM     71  OG  SER A   4      57.870  72.337  15.056  0.00  0.00    -0.380 OA
ATOM     72  H   SER A   4      56.908  72.206  14.864  0.00  0.00    +0.211 HD
ENDBRANCH  70  71
ENDBRANCH   1  70
TORSDOF 29
REMARK  Name = ../refined-set-2016/1y6r/1y6r_pocket.pdb
REMARK  214 active torsions:
REMARK  status: ('A' for Active; 'I' for Inactive)
REMARK    1  A    between atoms: _1  and  _3
REMARK    2  A    between atoms: _3  and  _4
REMARK    3  A    between atoms: _6  and  _8
REMARK    4  A    between atoms: _8  and  _9
REMARK    5  A    between atoms: _12  and  _14
REMARK    6  A    between atoms: _14  and  _15
REMARK    7  A    between atoms: _14  and  _17
REMARK    8  A    between atoms: _17  and  _18
REMARK    9  A    between atoms: _18  and  _19
REMARK   10  A    between atoms: _21  and  _23
REMARK   11  A    between atoms: _23  and  _24
REMARK   12  A    between atoms: _23  and  _26
REMARK   13  A    between atoms: _26  and  _27
REMARK   14  A    between atoms: _27  and  _28
REMARK   15  A    between atoms: _31  and  _33
REMARK   16  A    between atoms: _33  and  _34
REMARK   17  A    between atoms: _33  and  _36
REMARK   18  A    between atoms: _36  and  _37
REMARK   19  A    between atoms: _39  and  _41
REMARK   20  A    between atoms: _41  and  _42
REMARK   21  A    between atoms: _44  and  _46
REMARK   22  A    between atoms: _46  and  _47
REMARK   23  A    between atoms: _46  and  _49
REMARK   24  A    between atoms: _49  and  _50
REMARK   25  A    between atoms: _53  and  _55
REMARK   26  A    between atoms: _55  and  _56
REMARK   27  A    between atoms: _58  and  _60
REMARK   28  A    between atoms: _60  and  _61
REMARK   29  A    between atoms: _60  and  _63
REMARK   30  A    between atoms: _63  and  _64
REMARK   31  A    between atoms: _64  and  _65
REMARK   32  A    between atoms: _65  and  _66
REMARK   33  A    between atoms: _66  and  _67
REMARK   34  A    between atoms: _71  and  _73
REMARK   35  A    between atoms: _73  and  _74
REMARK   36  A    between atoms: _77  and  _79
REMARK   37  A    between atoms: _79  and  _80
REMARK   38  A    between atoms: _83  and  _85
REMARK   39  A    between atoms: _85  and  _86
REMARK   40  A    between atoms: _85  and  _88
REMARK   41  A    between atoms: _88  and  _89
REMARK   42  A    between atoms: _94  and  _96
REMARK   43  A    between atoms: _96  and  _97
REMARK   44  A    between atoms: _96  and  _99
REMARK   45  A    between atoms: _99  and  _100
REMARK   46  A    between atoms: _103  and  _105
REMARK   47  A    between atoms: _105  and  _106
REMARK   48  A    between atoms: _108  and  _110
REMARK   49  A    between atoms: _110  and  _111
REMARK   50  A    between atoms: _110  and  _113
REMARK   51  A    between atoms: _113  and  _114
REMARK   52  A    between atoms: _116  and  _118
REMARK   53  A    between atoms: _118  and  _119
REMARK   54  A    between atoms: _122  and  _124
REMARK   55  A    between atoms: _124  and  _125
REMARK   56  A    between atoms: _127  and  _129
REMARK   57  A    between atoms: _129  and  _130
REMARK   58  A    between atoms: _132  and  _134
REMARK   59  A    between atoms: _134  and  _135
REMARK   60  A    between atoms: _134  and  _137
REMARK   61  A    between atoms: _137  and  _138
REMARK   62  A    between atoms: _141  and  _143
REMARK   63  A    between atoms: _143  and  _144
REMARK   64  A    between atoms: _143  and  _146
REMARK   65  A    between atoms: _146  and  _147
REMARK   66  A    between atoms: _152  and  _154
REMARK   67  A    between atoms: _154  and  _155
REMARK   68  A    between atoms: _154  and  _157
REMARK   69  A    between atoms: _157  and  _158
REMARK   70  A    between atoms: _161  and  _163
REMARK   71  A    between atoms: _163  and  _164
REMARK   72  A    between atoms: _163  and  _166
REMARK   73  A    between atoms: _169  and  _171
REMARK   74  A    between atoms: _171  and  _172
REMARK   75  A    between atoms: _171  and  _174
REMARK   76  A    between atoms: _174  and  _175
REMARK   77  A    between atoms: _177  and  _179
REMARK   78  A    between atoms: _179  and  _180
REMARK   79  A    between atoms: _182  and  _184
REMARK   80  A    between atoms: _184  and  _185
REMARK   81  A    between atoms: _184  and  _187
REMARK   82  A    between atoms: _187  and  _188
REMARK   83  A    between atoms: _191  and  _193
REMARK   84  A    between atoms: _193  and  _194
REMARK   85  A    between atoms: _197  and  _199
REMARK   86  A    between atoms: _199  and  _200
REMARK   87  A    between atoms: _199  and  _202
REMARK   88  A    between atoms: _202  and  _203
REMARK   89  A    between atoms: _209  and  _211
REMARK   90  A    between atoms: _211  and  _212
REMARK   91  A    between atoms: _211  and  _214
REMARK   92  A    between atoms: _214  and  _215
REMARK   93  A    between atoms: _218  and  _220
REMARK   94  A    between atoms: _220  and  _221
REMARK   95  A    between atoms: _220  and  _223
REMARK   96  A    between atoms: _223  and  _224
REMARK   97  A    between atoms: _229  and  _231
REMARK   98  A    between atoms: _231  and  _232
REMARK   99  A    between atoms: _234  and  _236
REMARK  100  A    between atoms: _236  and  _237
REMARK  101  A    between atoms: _236  and  _239
REMARK  102  A    between atoms: _239  and  _240
REMARK  103  A    between atoms: _243  and  _245
REMARK  104  A    between atoms: _245  and  _246
REMARK  105  A    between atoms: _245  and  _248
REMARK  106  A    between atoms: _248  and  _249
REMARK  107  A    between atoms: _252  and  _254
REMARK  108  A    between atoms: _254  and  _255
REMARK  109  A    between atoms: _258  and  _260
REMARK  110  A    between atoms: _260  and  _261
REMARK  111  A    between atoms: _260  and  _263
REMARK  112  A    between atoms: _266  and  _268
REMARK  113  A    between atoms: _268  and  _269
REMARK  114  A    between atoms: _268  and  _271
REMARK  115  A    between atoms: _271  and  _272
REMARK  116  A    between atoms: _272  and  _273
REMARK  117  A    between atoms: _276  and  _278
REMARK  118  A    between atoms: _278  and  _279
REMARK  119  A    between atoms: _278  and  _281
REMARK  120  A    between atoms: _281  and  _282
REMARK  121  A    between atoms: _282  and  _283
REMARK  122  A    between atoms: _285  and  _287
REMARK  123  A    between atoms: _287  and  _288
REMARK  124  A    between atoms: _287  and  _290
REMARK  125  A    between atoms: _290  and  _291
REMARK  126  A    between atoms: _291  and  _292
REMARK  127  A    between atoms: _295  and  _297
REMARK  128  A    between atoms: _297  and  _298
REMARK  129  A    between atoms: _301  and  _303
REMARK  130  A    between atoms: _303  and  _304
REMARK  131  A    between atoms: _303  and  _306
REMARK  132  A    between atoms: _306  and  _307
REMARK  133  A    between atoms: _310  and  _312
REMARK  134  A    between atoms: _312  and  _313
REMARK  135  A    between atoms: _312  and  _315
REMARK  136  A    between atoms: _315  and  _316
REMARK  137  A    between atoms: _319  and  _321
REMARK  138  A    between atoms: _321  and  _322
REMARK  139  A    between atoms: _321  and  _324
REMARK  140  A    between atoms: _324  and  _325
REMARK  141  A    between atoms: _325  and  _326
REMARK  142  A    between atoms: _326  and  _327
REMARK  143  A    between atoms: _336  and  _338
REMARK  144  A    between atoms: _338  and  _339
REMARK  145  A    between atoms: _342  and  _344
REMARK  146  A    between atoms: _344  and  _345
REMARK  147  A    between atoms: _344  and  _347
REMARK  148  A    between atoms: _347  and  _348
REMARK  149  A    between atoms: _351  and  _353
REMARK  150  A    between atoms: _353  and  _354
REMARK  151  A    between atoms: _353  and  _356
REMARK  152  A    between atoms: _356  and  _357
REMARK  153  A    between atoms: _359  and  _361
REMARK  154  A    between atoms: _361  and  _362
REMARK  155  A    between atoms: _361  and  _364
REMARK  156  A    between atoms: _364  and  _365
REMARK  157  A    between atoms: _368  and  _370
REMARK  158  A    between atoms: _370  and  _371
REMARK  159  A    between atoms: _370  and  _373
REMARK  160  A    between atoms: _376  and  _378
REMARK  161  A    between atoms: _378  and  _379
REMARK  162  A    between atoms: _382  and  _384
REMARK  163  A    between atoms: _384  and  _385
REMARK  164  A    between atoms: _384  and  _387
REMARK  165  A    between atoms: _387  and  _388
REMARK  166  A    between atoms: _391  and  _393
REMARK  167  A    between atoms: _393  and  _394
REMARK  168  A    between atoms: _393  and  _396
REMARK  169  A    between atoms: _396  and  _397
REMARK  170  A    between atoms: _399  and  _401
REMARK  171  A    between atoms: _401  and  _402
REMARK  172  A    between atoms: _401  and  _404
REMARK  173  A    between atoms: _404  and  _405
REMARK  174  A    between atoms: _410  and  _412
REMARK  175  A    between atoms: _412  and  _413
REMARK  176  A    between atoms: _412  and  _415
REMARK  177  A    between atoms: _415  and  _416
REMARK  178  A    between atoms: _418  and  _420
REMARK  179  A    between atoms: _420  and  _421
REMARK  180  A    between atoms: _420  and  _423
REMARK  181  A    between atoms: _423  and  _424
REMARK  182  A    between atoms: _430  and  _432
REMARK  183  A    between atoms: _432  and  _433
REMARK  184  A    between atoms: _432  and  _435
REMARK  185  A    between atoms: _435  and  _436
REMARK  186  A    between atoms: _439  and  _441
REMARK  187  A    between atoms: _441  and  _442
REMARK  188  A    between atoms: _441  and  _444
REMARK  189  A    between atoms: _444  and  _445
REMARK  190  A    between atoms: _448  and  _450
REMARK  191  A    between atoms: _450  and  _451
REMARK  192  A    between atoms: _454  and  _456
REMARK  193  A    between atoms: _456  and  _457
REMARK  194  A    between atoms: _456  and  _459
REMARK  195  A    between atoms: _459  and  _460
REMARK  196  A    between atoms: _463  and  _465
REMARK  197  A    between atoms: _465  and  _466
REMARK  198  A    between atoms: _465  and  _468
REMARK  199  A    between atoms: _471  and  _473
REMARK  200  A    between atoms: _473  and  _474
REMARK  201  A    between atoms: _477  and  _479
REMARK  202  A    between atoms: _479  and  _480
REMARK  203  A    between atoms: _479  and  _482
REMARK  204  A    between atoms: _482  and  _483
REMARK  205  A    between atoms: _489  and  _491
REMARK  206  A    between atoms: _491  and  _492
REMARK  207  A    between atoms: _491  and  _494
REMARK  208  A    between atoms: _494  and  _495
REMARK  209  A    between atoms: _500  and  _501
REMARK  210  A    between atoms: _503  and  _505
REMARK  211  A    between atoms: _505  and  _506
REMARK  212  A    between atoms: _505  and  _508
REMARK  213  A    between atoms: _508  and  _509
REMARK  214  A    between atoms: _513  and  _514
REMARK                            x       y       z     vdW  Elec       q    Type
REMARK                         _______ _______ _______ _____ _____    ______ ____
ROOT
ATOM      1  C   SER A   1      51.166  69.274  14.957  0.00  0.00    +0.241 C 
ATOM      2  N   HIS A   2      50.405  68.399  15.612  0.00  0.00    -0.298 N 
ATOM      3  H   HIS A   2      49.370  68.498  15.611  0.00  0.00    +0.150 HD
ATOM      4  O   SER A   1      52.399  69.197  14.965  0.00  0.00    -0.274 OA
ENDROOT
BRANCH   1   5
ATOM      5  CA  SER A   1      50.488  70.399  14.172  0.00  0.00    +0.174 C 
BRANCH   5   6
ATOM      6  N   SER A   1      49.205  70.065  13.581  0.00  0.00    -0.236 NA
ATOM      7  H   SER A   1      48.362  70.616  13.839  0.00  0.00    +0.142 HD
ENDBRANCH   5   6
BRANCH   5   8
ATOM      8  CB  SER A   1      50.355  71.661  15.030  0.00  0.00    +0.163 C 
BRANCH   8   9
ATOM      9  OG  SER A   1      49.613  71.422  16.214  0.00  0.00    -0.380 OA
ATOM     10  H   SER A   1      49.551  72.260  16.738  0.00  0.00    +0.211 HD
ENDBRANCH   8   9
ENDBRANCH   5   8
ENDBRANCH   1   5
BRANCH   2  11
ATOM     11  CA  HIS A   2      51.042  67.295  16.334  0.00  0.00    +0.143 C 
BRANCH  11  12
ATOM     12  C   HIS A   2      51.688  66.294  15.353  0.00  0.00    +0.227 C 
ATOM     13  O   HIS A   2      52.797  65.792  15.599  0.00  0.00    -0.286 OA
ENDBRANCH  11  12
BRANCH  11  14
ATOM     14  CB  HIS A   2      50.044  66.551  17.230  0.00  0.00    +0.075 C 
BRANCH  14  15
ATOM     15  CG  HIS A   2      48.851  66.021  16.496  0.00  0.00    +0.082 A 
ATOM     16  CD2 HIS A   2      48.272  64.796  16.504  0.00  0.00    +0.115 A 
ATOM     17  NE2 HIS A   2      47.209  64.845  15.634  0.00  0.00    -0.221 NA
ATOM     18  CE1 HIS A   2      47.137  66.054  15.109  0.00  0.00    +0.199 A 
ATOM     19  ND1 HIS A   2      48.118  66.786  15.611  0.00  0.00    -0.227 NA
ENDBRANCH  14  15
ENDBRANCH  11  14
ENDBRANCH   2  11
TORSDOF 8
REMARK  Name = ../refined-set-2016/1y6r/1y6r_pocket.pdb
REMARK  214 active torsions:
REMARK  status: ('A' for Active; 'I' for Inactive)
REMARK    1  A    between atoms: _1  and  _3
REMARK    2  A    between atoms: _3  and  _4
REMARK    3  A    between atoms: _6  and  _8
REMARK    4  A    between atoms: _8  and  _9
REMARK    5  A    between atoms: _12  and  _14
REMARK    6  A    between atoms: _14  and  _15
REMARK    7  A    between atoms: _14  and  _17
REMARK    8  A    between atoms: _17  and  _18
REMARK    9  A    between atoms: _18  and  _19
REMARK   10  A    between atoms: _21  and  _23
REMARK   11  A    between atoms: _23  and  _24
REMARK   12  A    between atoms: _23  and  _26
REMARK   13  A    between atoms: _26  and  _27
REMARK   14  A    between atoms: _27  and  _28
REMARK   15  A    between atoms: _31  and  _33
REMARK   16  A    between atoms: _33  and  _34
REMARK   17  A    between atoms: _33  and  _36
REMARK   18  A    between atoms: _36  and  _37
REMARK   19  A    between atoms: _39  and  _41
REMARK   20  A    between atoms: _41  and  _42
REMARK   21  A    between atoms: _44  and  _46
REMARK   22  A    between atoms: _46  and  _47
REMARK   23  A    between atoms: _46  and  _49
REMARK   24  A    between atoms: _49  and  _50
REMARK   25  A    between atoms: _53  and  _55
REMARK   26  A    between atoms: _55  and  _56
REMARK   27  A    between atoms: _58  and  _60
REMARK   28  A    between atoms: _60  and  _61
REMARK   29  A    between atoms: _60  and  _63
REMARK   30  A    between atoms: _63  and  _64
REMARK   31  A    between atoms: _64  and  _65
REMARK   32  A    between atoms: _65  and  _66
REMARK   33  A    between atoms: _66  and  _67
REMARK   34  A    between atoms: _71  and  _73
REMARK   35  A    between atoms: _73  and  _74
REMARK   36  A    between atoms: _77  and  _79
REMARK   37  A    between atoms: _79  and  _80
REMARK   38  A    between atoms: _83  and  _85
REMARK   39  A    between atoms: _85  and  _86
REMARK   40  A    between atoms: _85  and  _88
REMARK   41  A    between atoms: _88  and  _89
REMARK   42  A    between atoms: _94  and  _96
REMARK   43  A    between atoms: _96  and  _97
REMARK   44  A    between atoms: _96  and  _99
REMARK   45  A    between atoms: _99  and  _100
REMARK   46  A    between atoms: _103  and  _105
REMARK   47  A    between atoms: _105  and  _106
REMARK   48  A    between atoms: _108  and  _110
REMARK   49  A    between atoms: _110  and  _111
REMARK   50  A    between atoms: _110  and  _113
REMARK   51  A    between atoms: _113  and  _114
REMARK   52  A    between atoms: _116  and  _118
REMARK   53  A    between atoms: _118  and  _119
REMARK   54  A    between atoms: _122  and  _124
REMARK   55  A    between atoms: _124  and  _125
REMARK   56  A    between atoms: _127  and  _129
REMARK   57  A    between atoms: _129  and  _130
REMARK   58  A    between atoms: _132  and  _134
REMARK   59  A    between atoms: _134  and  _135
REMARK   60  A    between atoms: _134  and  _137
REMARK   61  A    between atoms: _137  and  _138
REMARK   62  A    between atoms: _141  and  _143
REMARK   63  A    between atoms: _143  and  _144
REMARK   64  A    between atoms: _143  and  _146
REMARK   65  A    between atoms: _146  and  _147
REMARK   66  A    between atoms: _152  and  _154
REMARK   67  A    between atoms: _154  and  _155
REMARK   68  A    between atoms: _154  and  _157
REMARK   69  A    between atoms: _157  and  _158
REMARK   70  A    between atoms: _161  and  _163
REMARK   71  A    between atoms: _163  and  _164
REMARK   72  A    between atoms: _163  and  _166
REMARK   73  A    between atoms: _169  and  _171
REMARK   74  A    between atoms: _171  and  _172
REMARK   75  A    between atoms: _171  and  _174
REMARK   76  A    between atoms: _174  and  _175
REMARK   77  A    between atoms: _177  and  _179
REMARK   78  A    between atoms: _179  and  _180
REMARK   79  A    between atoms: _182  and  _184
REMARK   80  A    between atoms: _184  and  _185
REMARK   81  A    between atoms: _184  and  _187
REMARK   82  A    between atoms: _187  and  _188
REMARK   83  A    between atoms: _191  and  _193
REMARK   84  A    between atoms: _193  and  _194
REMARK   85  A    between atoms: _197  and  _199
REMARK   86  A    between atoms: _199  and  _200
REMARK   87  A    between atoms: _199  and  _202
REMARK   88  A    between atoms: _202  and  _203
REMARK   89  A    between atoms: _209  and  _211
REMARK   90  A    between atoms: _211  and  _212
REMARK   91  A    between atoms: _211  and  _214
REMARK   92  A    between atoms: _214  and  _215
REMARK   93  A    between atoms: _218  and  _220
REMARK   94  A    between atoms: _220  and  _221
REMARK   95  A    between atoms: _220  and  _223
REMARK   96  A    between atoms: _223  and  _224
REMARK   97  A    between atoms: _229  and  _231
REMARK   98  A    between atoms: _231  and  _232
REMARK   99  A    between atoms: _234  and  _236
REMARK  100  A    between atoms: _236  and  _237
REMARK  101  A    between atoms: _236  and  _239
REMARK  102  A    between atoms: _239  and  _240
REMARK  103  A    between atoms: _243  and  _245
REMARK  104  A    between atoms: _245  and  _246
REMARK  105  A    between atoms: _245  and  _248
REMARK  106  A    between atoms: _248  and  _249
REMARK  107  A    between atoms: _252  and  _254
REMARK  108  A    between atoms: _254  and  _255
REMARK  109  A    between atoms: _258  and  _260
REMARK  110  A    between atoms: _260  and  _261
REMARK  111  A    between atoms: _260  and  _263
REMARK  112  A    between atoms: _266  and  _268
REMARK  113  A    between atoms: _268  and  _269
REMARK  114  A    between atoms: _268  and  _271
REMARK  115  A    between atoms: _271  and  _272
REMARK  116  A    between atoms: _272  and  _273
REMARK  117  A    between atoms: _276  and  _278
REMARK  118  A    between atoms: _278  and  _279
REMARK  119  A    between atoms: _278  and  _281
REMARK  120  A    between atoms: _281  and  _282
REMARK  121  A    between atoms: _282  and  _283
REMARK  122  A    between atoms: _285  and  _287
REMARK  123  A    between atoms: _287  and  _288
REMARK  124  A    between atoms: _287  and  _290
REMARK  125  A    between atoms: _290  and  _291
REMARK  126  A    between atoms: _291  and  _292
REMARK  127  A    between atoms: _295  and  _297
REMARK  128  A    between atoms: _297  and  _298
REMARK  129  A    between atoms: _301  and  _303
REMARK  130  A    between atoms: _303  and  _304
REMARK  131  A    between atoms: _303  and  _306
REMARK  132  A    between atoms: _306  and  _307
REMARK  133  A    between atoms: _310  and  _312
REMARK  134  A    between atoms: _312  and  _313
REMARK  135  A    between atoms: _312  and  _315
REMARK  136  A    between atoms: _315  and  _316
REMARK  137  A    between atoms: _319  and  _321
REMARK  138  A    between atoms: _321  and  _322
REMARK  139  A    between atoms: _321  and  _324
REMARK  140  A    between atoms: _324  and  _325
REMARK  141  A    between atoms: _325  and  _326
REMARK  142  A    between atoms: _326  and  _327
REMARK  143  A    between atoms: _336  and  _338
REMARK  144  A    between atoms: _338  and  _339
REMARK  145  A    between atoms: _342  and  _344
REMARK  146  A    between atoms: _344  and  _345
REMARK  147  A    between atoms: _344  and  _347
REMARK  148  A    between atoms: _347  and  _348
REMARK  149  A    between atoms: _351  and  _353
REMARK  150  A    between atoms: _353  and  _354
REMARK  151  A    between atoms: _353  and  _356
REMARK  152  A    between atoms: _356  and  _357
REMARK  153  A    between atoms: _359  and  _361
REMARK  154  A    between atoms: _361  and  _362
REMARK  155  A    between atoms: _361  and  _364
REMARK  156  A    between atoms: _364  and  _365
REMARK  157  A    between atoms: _368  and  _370
REMARK  158  A    between atoms: _370  and  _371
REMARK  159  A    between atoms: _370  and  _373
REMARK  160  A    between atoms: _376  and  _378
REMARK  161  A    between atoms: _378  and  _379
REMARK  162  A    between atoms: _382  and  _384
REMARK  163  A    between atoms: _384  and  _385
REMARK  164  A    between atoms: _384  and  _387
REMARK  165  A    between atoms: _387  and  _388
REMARK  166  A    between atoms: _391  and  _393
REMARK  167  A    between atoms: _393  and  _394
REMARK  168  A    between atoms: _393  and  _396
REMARK  169  A    between atoms: _396  and  _397
REMARK  170  A    between atoms: _399  and  _401
REMARK  171  A    between atoms: _401  and  _402
REMARK  172  A    between atoms: _401  and  _404
REMARK  173  A    between atoms: _404  and  _405
REMARK  174  A    between atoms: _410  and  _412
REMARK  175  A    between atoms: _412  and  _413
REMARK  176  A    between atoms: _412  and  _415
REMARK  177  A    between atoms: _415  and  _416
REMARK  178  A    between atoms: _418  and  _420
REMARK  179  A    between atoms: _420  and  _421
REMARK  180  A    between atoms: _420  and  _423
REMARK  181  A    between atoms: _423  and  _424
REMARK  182  A    between atoms: _430  and  _432
REMARK  183  A    between atoms: _432  and  _433
REMARK  184  A    between atoms: _432  and  _435
REMARK  185  A    between atoms: _435  and  _436
REMARK  186  A    between atoms: _439  and  _441
REMARK  187  A    between atoms: _441  and  _442
REMARK  188  A    between atoms: _441  and  _444
REMARK  189  A    between atoms: _444  and  _445
REMARK  190  A    between atoms: _448  and  _450
REMARK  191  A    between atoms: _450  and  _451
REMARK  192  A    between atoms: _454  and  _456
REMARK  193  A    between atoms: _456  and  _457
REMARK  194  A    between atoms: _456  and  _459
REMARK  195  A    between atoms: _459  and  _460
REMARK  196  A    between atoms: _463  and  _465
REMARK  197  A    between atoms: _465  and  _466
REMARK  198  A    between atoms: _465  and  _468
REMARK  199  A    between atoms: _471  and  _473
REMARK  200  A    between atoms: _473  and  _474
REMARK  201  A    between atoms: _477  and  _479
REMARK  202  A    between atoms: _479  and  _480
REMARK  203  A    between atoms: _479  and  _482
REMARK  204  A    between atoms: _482  and  _483
REMARK  205  A    between atoms: _489  and  _491
REMARK  206  A    between atoms: _491  and  _492
REMARK  207  A    between atoms: _491  and  _494
REMARK  208  A    between atoms: _494  and  _495
REMARK  209  A    between atoms: _500  and  _501
REMARK  210  A    between atoms: _503  and  _505
REMARK  211  A    between atoms: _505  and  _506
REMARK  212  A    between atoms: _505  and  _508
REMARK  213  A    between atoms: _508  and  _509
REMARK  214  A    between atoms: _513  and  _514
REMARK                            x       y       z     vdW  Elec       q    Type
REMARK                         _______ _______ _______ _____ _____    ______ ____
ROOT
ATOM      1  CA  PHE A   2      55.697  68.023  14.800  0.00  0.00    +0.153 C 
ENDROOT
BRANCH   1   3
ATOM      2  C   SER A   1      54.909  67.688  12.530  0.00  0.00    +0.241 C 
ATOM      3  N   PHE A   2      54.628  67.946  13.807  0.00  0.00    -0.297 N 
ATOM      4  H   PHE A   2      53.641  68.094  14.099  0.00  0.00    +0.150 HD
ATOM      5  O   SER A   1      56.059  67.493  12.137  0.00  0.00    -0.274 OA
BRANCH   2   6
ATOM      6  CA  SER A   1      53.731  67.622  11.549  0.00  0.00    +0.174 C 
BRANCH   6   7
ATOM      7  N   SER A   1      52.623  66.922  12.164  0.00  0.00    -0.236 NA
ATOM      8  H   SER A   1      51.703  67.397  12.262  0.00  0.00    +0.142 HD
ENDBRANCH   6   7
BRANCH   6   9
ATOM      9  CB  SER A   1      53.296  69.031  11.147  0.00  0.00    +0.163 C 
BRANCH   9  10
ATOM     10  OG  SER A   1      54.420  69.797  10.752  0.00  0.00    -0.380 OA
ATOM     11  H   SER A   1      55.058  69.858  11.506  0.00  0.00    +0.211 HD
ENDBRANCH   9  10
ENDBRANCH   6   9
ENDBRANCH   2   6
ENDBRANCH   1   3
BRANCH   1  12
ATOM     12  C   PHE A   2      56.435  66.689  14.874  0.00  0.00    +0.241 C 
ATOM     13  O   PHE A   2      57.669  66.647  14.922  0.00  0.00    -0.273 OA
ATOM     14  N   ASP A   3      55.680  65.597  14.856  0.00  0.00    -0.298 N 
ATOM     15  H   ASP A   3      54.646  65.695  14.810  0.00  0.00    +0.150 HD
BRANCH  14  16
ATOM     16  CA  ASP A   3      56.270  64.258  14.899  0.00  0.00    +0.148 C 
BRANCH  16  17
ATOM     17  C   ASP A   3      57.230  63.994  13.738  0.00  0.00    +0.227 C 
ATOM     18  O   ASP A   3      58.290  63.389  13.910  0.00  0.00    -0.286 OA
ENDBRANCH  16  17
BRANCH  16  19
ATOM     19  CB  ASP A   3      55.169  63.200  14.846  0.00  0.00    +0.142 C 
BRANCH  19  20
ATOM     20  CG  ASP A   3      54.458  63.032  16.166  0.00  0.00    +0.367 C 
ATOM     21  OD2 ASP A   3      54.946  63.581  17.187  0.00  0.00    -0.246 OA
ATOM     22  OD1 ASP A   3      53.414  62.341  16.176  0.00  0.00    -0.246 OA
ENDBRANCH  19  20
ENDBRANCH  16  19
ENDBRANCH  14  16
ENDBRANCH   1  12
BRANCH   1  23
ATOM     23  CB  PHE A   2      55.131  68.396  16.177  0.00  0.00    +0.055 C 
BRANCH  23  24
ATOM     24  CG  PHE A   2      56.190  68.705  17.208  0.00  0.00    -0.020 A 
ATOM     25  CD2 PHE A   2      56.516  67.774  18.196  0.00  0.00    -0.004 A 
ATOM     26  CE2 PHE A   2      57.496  68.053  19.153  0.00  0.00    -0.000 A 
ATOM     27  CZ  PHE A   2      58.165  69.283  19.124  0.00  0.00    -0.000 A 
ATOM     28  CE1 PHE A   2      57.846  70.220  18.132  0.00  0.00    -0.000 A 
ATOM     29  CD1 PHE A   2      56.860  69.924  17.186  0.00  0.00    -0.004 A 
ENDBRANCH  23  24
ENDBRANCH   1  23
TORSDOF 12
REMARK  Name = ../refined-set-2016/1y6r/1y6r_pocket.pdb
REMARK  214 active torsions:
REMARK  status: ('A' for Active; 'I' for Inactive)
REMARK    1  A    between atoms: _1  and  _3
REMARK    2  A    between atoms: _3  and  _4
REMARK    3  A    between atoms: _6  and  _8
REMARK    4  A    between atoms: _8  and  _9
REMARK    5  A    between atoms: _12  and  _14
REMARK    6  A    between atoms: _14  and  _15
REMARK    7  A    between atoms: _14  and  _17
REMARK    8  A    between atoms: _17  and  _18
REMARK    9  A    between atoms: _18  and  _19
REMARK   10  A    between atoms: _21  and  _23
REMARK   11  A    between atoms: _23  and  _24
REMARK   12  A    between atoms: _23  and  _26
REMARK   13  A    between atoms: _26  and  _27
REMARK   14  A    between atoms: _27  and  _28
REMARK   15  A    between atoms: _31  and  _33
REMARK   16  A    between atoms: _33  and  _34
REMARK   17  A    between atoms: _33  and  _36
REMARK   18  A    between atoms: _36  and  _37
REMARK   19  A    between atoms: _39  and  _41
REMARK   20  A    between atoms: _41  and  _42
REMARK   21  A    between atoms: _44  and  _46
REMARK   22  A    between atoms: _46  and  _47
REMARK   23  A    between atoms: _46  and  _49
REMARK   24  A    between atoms: _49  and  _50
REMARK   25  A    between atoms: _53  and  _55
REMARK   26  A    between atoms: _55  and  _56
REMARK   27  A    between atoms: _58  and  _60
REMARK   28  A    between atoms: _60  and  _61
REMARK   29  A    between atoms: _60  and  _63
REMARK   30  A    between atoms: _63  and  _64
REMARK   31  A    between atoms: _64  and  _65
REMARK   32  A    between atoms: _65  and  _66
REMARK   33  A    between atoms: _66  and  _67
REMARK   34  A    between atoms: _71  and  _73
REMARK   35  A    between atoms: _73  and  _74
REMARK   36  A    between atoms: _77  and  _79
REMARK   37  A    between atoms: _79  and  _80
REMARK   38  A    between atoms: _83  and  _85
REMARK   39  A    between atoms: _85  and  _86
REMARK   40  A    between atoms: _85  and  _88
REMARK   41  A    between atoms: _88  and  _89
REMARK   42  A    between atoms: _94  and  _96
REMARK   43  A    between atoms: _96  and  _97
REMARK   44  A    between atoms: _96  and  _99
REMARK   45  A    between atoms: _99  and  _100
REMARK   46  A    between atoms: _103  and  _105
REMARK   47  A    between atoms: _105  and  _106
REMARK   48  A    between atoms: _108  and  _110
REMARK   49  A    between atoms: _110  and  _111
REMARK   50  A    between atoms: _110  and  _113
REMARK   51  A    between atoms: _113  and  _114
REMARK   52  A    between atoms: _116  and  _118
REMARK   53  A    between atoms: _118  and  _119
REMARK   54  A    between atoms: _122  and  _124
REMARK   55  A    between atoms: _124  and  _125
REMARK   56  A    between atoms: _127  and  _129
REMARK   57  A    between atoms: _129  and  _130
REMARK   58  A    between atoms: _132  and  _134
REMARK   59  A    between atoms: _134  and  _135
REMARK   60  A    between atoms: _134  and  _137
REMARK   61  A    between atoms: _137  and  _138
REMARK   62  A    between atoms: _141  and  _143
REMARK   63  A    between atoms: _143  and  _144
REMARK   64  A    between atoms: _143  and  _146
REMARK   65  A    between atoms: _146  and  _147
REMARK   66  A    between atoms: _152  and  _154
REMARK   67  A    between atoms: _154  and  _155
REMARK   68  A    between atoms: _154  and  _157
REMARK   69  A    between atoms: _157  and  _158
REMARK   70  A    between atoms: _161  and  _163
REMARK   71  A    between atoms: _163  and  _164
REMARK   72  A    between atoms: _163  and  _166
REMARK   73  A    between atoms: _169  and  _171
REMARK   74  A    between atoms: _171  and  _172
REMARK   75  A    between atoms: _171  and  _174
REMARK   76  A    between atoms: _174  and  _175
REMARK   77  A    between atoms: _177  and  _179
REMARK   78  A    between atoms: _179  and  _180
REMARK   79  A    between atoms: _182  and  _184
REMARK   80  A    between atoms: _184  and  _185
REMARK   81  A    between atoms: _184  and  _187
REMARK   82  A    between atoms: _187  and  _188
REMARK   83  A    between atoms: _191  and  _193
REMARK   84  A    between atoms: _193  and  _194
REMARK   85  A    between atoms: _197  and  _199
REMARK   86  A    between atoms: _199  and  _200
REMARK   87  A    between atoms: _199  and  _202
REMARK   88  A    between atoms: _202  and  _203
REMARK   89  A    between atoms: _209  and  _211
REMARK   90  A    between atoms: _211  and  _212
REMARK   91  A    between atoms: _211  and  _214
REMARK   92  A    between atoms: _214  and  _215
REMARK   93  A    between atoms: _218  and  _220
REMARK   94  A    between atoms: _220  and  _221
REMARK   95  A    between atoms: _220  and  _223
REMARK   96  A    between atoms: _223  and  _224
REMARK   97  A    between atoms: _229  and  _231
REMARK   98  A    between atoms: _231  and  _232
REMARK   99  A    between atoms: _234  and  _236
REMARK  100  A    between atoms: _236  and  _237
REMARK  101  A    between atoms: _236  and  _239
REMARK  102  A    between atoms: _239  and  _240
REMARK  103  A    between atoms: _243  and  _245
REMARK  104  A    between atoms: _245  and  _246
REMARK  105  A    between atoms: _245  and  _248
REMARK  106  A    between atoms: _248  and  _249
REMARK  107  A    between atoms: _252  and  _254
REMARK  108  A    between atoms: _254  and  _255
REMARK  109  A    between atoms: _258  and  _260
REMARK  110  A    between atoms: _260  and  _261
REMARK  111  A    between atoms: _260  and  _263
REMARK  112  A    between atoms: _266  and  _268
REMARK  113  A    between atoms: _268  and  _269
REMARK  114  A    between atoms: _268  and  _271
REMARK  115  A    between atoms: _271  and  _272
REMARK  116  A    between atoms: _272  and  _273
REMARK  117  A    between atoms: _276  and  _278
REMARK  118  A    between atoms: _278  and  _279
REMARK  119  A    between atoms: _278  and  _281
REMARK  120  A    between atoms: _281  and  _282
REMARK  121  A    between atoms: _282  and  _283
REMARK  122  A    between atoms: _285  and  _287
REMARK  123  A    between atoms: _287  and  _288
REMARK  124  A    between atoms: _287  and  _290
REMARK  125  A    between atoms: _290  and  _291
REMARK  126  A    between atoms: _291  and  _292
REMARK  127  A    between atoms: _295  and  _297
REMARK  128  A    between atoms: _297  and  _298
REMARK  129  A    between atoms: _301  and  _303
REMARK  130  A    between atoms: _303  and  _304
REMARK  131  A    between atoms: _303  and  _306
REMARK  132  A    between atoms: _306  and  _307
REMARK  133  A    between atoms: _310  and  _312
REMARK  134  A    between atoms: _312  and  _313
REMARK  135  A    between atoms: _312  and  _315
REMARK  136  A    between atoms: _315  and  _316
REMARK  137  A    between atoms: _319  and  _321
REMARK  138  A    between atoms: _321  and  _322
REMARK  139  A    between atoms: _321  and  _324
REMARK  140  A    between atoms: _324  and  _325
REMARK  141  A    between atoms: _325  and  _326
REMARK  142  A    between atoms: _326  and  _327
REMARK  143  A    between atoms: _336  and  _338
REMARK  144  A    between atoms: _338  and  _339
REMARK  145  A    between atoms: _342  and  _344
REMARK  146  A    between atoms: _344  and  _345
REMARK  147  A    between atoms: _344  and  _347
REMARK  148  A    between atoms: _347  and  _348
REMARK  149  A    between atoms: _351  and  _353
REMARK  150  A    between atoms: _353  and  _354
REMARK  151  A    between atoms: _353  and  _356
REMARK  152  A    between atoms: _356  and  _357
REMARK  153  A    between atoms: _359  and  _361
REMARK  154  A    between atoms: _361  and  _362
REMARK  155  A    between atoms: _361  and  _364
REMARK  156  A    between atoms: _364  and  _365
REMARK  157  A    between atoms: _368  and  _370
REMARK  158  A    between atoms: _370  and  _371
REMARK  159  A    between atoms: _370  and  _373
REMARK  160  A    between atoms: _376  and  _378
REMARK  161  A    between atoms: _378  and  _379
REMARK  162  A    between atoms: _382  and  _384
REMARK  163  A    between atoms: _384  and  _385
REMARK  164  A    between atoms: _384  and  _387
REMARK  165  A    between atoms: _387  and  _388
REMARK  166  A    between atoms: _391  and  _393
REMARK  167  A    between atoms: _393  and  _394
REMARK  168  A    between atoms: _393  and  _396
REMARK  169  A    between atoms: _396  and  _397
REMARK  170  A    between atoms: _399  and  _401
REMARK  171  A    between atoms: _401  and  _402
REMARK  172  A    between atoms: _401  and  _404
REMARK  173  A    between atoms: _404  and  _405
REMARK  174  A    between atoms: _410  and  _412
REMARK  175  A    between atoms: _412  and  _413
REMARK  176  A    between atoms: _412  and  _415
REMARK  177  A    between atoms: _415  and  _416
REMARK  178  A    between atoms: _418  and  _420
REMARK  179  A    between atoms: _420  and  _421
REMARK  180  A    between atoms: _420  and  _423
REMARK  181  A    between atoms: _423  and  _424
REMARK  182  A    between atoms: _430  and  _432
REMARK  183  A    between atoms: _432  and  _433
REMARK  184  A    between atoms: _432  and  _435
REMARK  185  A    between atoms: _435  and  _436
REMARK  186  A    between atoms: _439  and  _441
REMARK  187  A    between atoms: _441  and  _442
REMARK  188  A    between atoms: _441  and  _444
REMARK  189  A    between atoms: _444  and  _445
REMARK  190  A    between atoms: _448  and  _450
REMARK  191  A    between atoms: _450  and  _451
REMARK  192  A    between atoms: _454  and  _456
REMARK  193  A    between atoms: _456  and  _457
REMARK  194  A    between atoms: _456  and  _459
REMARK  195  A    between atoms: _459  and  _460
REMARK  196  A    between atoms: _463  and  _465
REMARK  197  A    between atoms: _465  and  _466
REMARK  198  A    between atoms: _465  and  _468
REMARK  199  A    between atoms: _471  and  _473
REMARK  200  A    between atoms: _473  and  _474
REMARK  201  A    between atoms: _477  and  _479
REMARK  202  A    between atoms: _479  and  _480
REMARK  203  A    between atoms: _479  and  _482
REMARK  204  A    between atoms: _482  and  _483
REMARK  205  A    between atoms: _489  and  _491
REMARK  206  A    between atoms: _491  and  _492
REMARK  207  A    between atoms: _491  and  _494
REMARK  208  A    between atoms: _494  and  _495
REMARK  209  A    between atoms: _500  and  _501
REMARK  210  A    between atoms: _503  and  _505
REMARK  211  A    between atoms: _505  and  _506
REMARK  212  A    between atoms: _505  and  _508
REMARK  213  A    between atoms: _508  and  _509
REMARK  214  A    between atoms: _513  and  _514
REMARK                            x       y       z     vdW  Elec       q    Type
REMARK                         _______ _______ _______ _____ _____    ______ ____
ROOT
ATOM      1  CA  LEU A   1      60.976  67.958  14.763  0.00  0.00    +0.133 C 
ENDROOT
BRANCH   1   2
ATOM      2  N   LEU A   1      60.239  67.466  13.605  0.00  0.00    -0.239 NA
ATOM      3  H   LEU A   1      59.600  66.652  13.703  0.00  0.00    +0.142 HD
ENDBRANCH   1   2
BRANCH   1   4
ATOM      4  C   LEU A   1      62.458  67.904  14.398  0.00  0.00    +0.224 C 
ATOM      5  O   LEU A   1      63.209  68.856  14.638  0.00  0.00    -0.287 OA
ENDBRANCH   1   4
BRANCH   1   6
ATOM      6  CB  LEU A   1      60.721  67.072  15.985  0.00  0.00    +0.025 C 
BRANCH   6   7
ATOM      7  CG  LEU A   1      61.651  67.316  17.182  0.00  0.00    +0.002 C 
ATOM      8  CD2 LEU A   1      61.243  66.435  18.339  0.00  0.00    +0.000 C 
ATOM      9  CD1 LEU A   1      61.615  68.787  17.585  0.00  0.00    +0.000 C 
ENDBRANCH   6   7
ENDBRANCH   1   6
TORSDOF 4
REMARK  Name = ../refined-set-2016/1y6r/1y6r_pocket.pdb
REMARK  214 active torsions:
REMARK  status: ('A' for Active; 'I' for Inactive)
REMARK    1  A    between atoms: _1  and  _3
REMARK    2  A    between atoms: _3  and  _4
REMARK    3  A    between atoms: _6  and  _8
REMARK    4  A    between atoms: _8  and  _9
REMARK    5  A    between atoms: _12  and  _14
REMARK    6  A    between atoms: _14  and  _15
REMARK    7  A    between atoms: _14  and  _17
REMARK    8  A    between atoms: _17  and  _18
REMARK    9  A    between atoms: _18  and  _19
REMARK   10  A    between atoms: _21  and  _23
REMARK   11  A    between atoms: _23  and  _24
REMARK   12  A    between atoms: _23  and  _26
REMARK   13  A    between atoms: _26  and  _27
REMARK   14  A    between atoms: _27  and  _28
REMARK   15  A    between atoms: _31  and  _33
REMARK   16  A    between atoms: _33  and  _34
REMARK   17  A    between atoms: _33  and  _36
REMARK   18  A    between atoms: _36  and  _37
REMARK   19  A    between atoms: _39  and  _41
REMARK   20  A    between atoms: _41  and  _42
REMARK   21  A    between atoms: _44  and  _46
REMARK   22  A    between atoms: _46  and  _47
REMARK   23  A    between atoms: _46  and  _49
REMARK   24  A    between atoms: _49  and  _50
REMARK   25  A    between atoms: _53  and  _55
REMARK   26  A    between atoms: _55  and  _56
REMARK   27  A    between atoms: _58  and  _60
REMARK   28  A    between atoms: _60  and  _61
REMARK   29  A    between atoms: _60  and  _63
REMARK   30  A    between atoms: _63  and  _64
REMARK   31  A    between atoms: _64  and  _65
REMARK   32  A    between atoms: _65  and  _66
REMARK   33  A    between atoms: _66  and  _67
REMARK   34  A    between atoms: _71  and  _73
REMARK   35  A    between atoms: _73  and  _74
REMARK   36  A    between atoms: _77  and  _79
REMARK   37  A    between atoms: _79  and  _80
REMARK   38  A    between atoms: _83  and  _85
REMARK   39  A    between atoms: _85  and  _86
REMARK   40  A    between atoms: _85  and  _88
REMARK   41  A    between atoms: _88  and  _89
REMARK   42  A    between atoms: _94  and  _96
REMARK   43  A    between atoms: _96  and  _97
REMARK   44  A    between atoms: _96  and  _99
REMARK   45  A    between atoms: _99  and  _100
REMARK   46  A    between atoms: _103  and  _105
REMARK   47  A    between atoms: _105  and  _106
REMARK   48  A    between atoms: _108  and  _110
REMARK   49  A    between atoms: _110  and  _111
REMARK   50  A    between atoms: _110  and  _113
REMARK   51  A    between atoms: _113  and  _114
REMARK   52  A    between atoms: _116  and  _118
REMARK   53  A    between atoms: _118  and  _119
REMARK   54  A    between atoms: _122  and  _124
REMARK   55  A    between atoms: _124  and  _125
REMARK   56  A    between atoms: _127  and  _129
REMARK   57  A    between atoms: _129  and  _130
REMARK   58  A    between atoms: _132  and  _134
REMARK   59  A    between atoms: _134  and  _135
REMARK   60  A    between atoms: _134  and  _137
REMARK   61  A    between atoms: _137  and  _138
REMARK   62  A    between atoms: _141  and  _143
REMARK   63  A    between atoms: _143  and  _144
REMARK   64  A    between atoms: _143  and  _146
REMARK   65  A    between atoms: _146  and  _147
REMARK   66  A    between atoms: _152  and  _154
REMARK   67  A    between atoms: _154  and  _155
REMARK   68  A    between atoms: _154  and  _157
REMARK   69  A    between atoms: _157  and  _158
REMARK   70  A    between atoms: _161  and  _163
REMARK   71  A    between atoms: _163  and  _164
REMARK   72  A    between atoms: _163  and  _166
REMARK   73  A    between atoms: _169  and  _171
REMARK   74  A    between atoms: _171  and  _172
REMARK   75  A    between atoms: _171  and  _174
REMARK   76  A    between atoms: _174  and  _175
REMARK   77  A    between atoms: _177  and  _179
REMARK   78  A    between atoms: _179  and  _180
REMARK   79  A    between atoms: _182  and  _184
REMARK   80  A    between atoms: _184  and  _185
REMARK   81  A    between atoms: _184  and  _187
REMARK   82  A    between atoms: _187  and  _188
REMARK   83  A    between atoms: _191  and  _193
REMARK   84  A    between atoms: _193  and  _194
REMARK   85  A    between atoms: _197  and  _199
REMARK   86  A    between atoms: _199  and  _200
REMARK   87  A    between atoms: _199  and  _202
REMARK   88  A    between atoms: _202  and  _203
REMARK   89  A    between atoms: _209  and  _211
REMARK   90  A    between atoms: _211  and  _212
REMARK   91  A    between atoms: _211  and  _214
REMARK   92  A    between atoms: _214  and  _215
REMARK   93  A    between atoms: _218  and  _220
REMARK   94  A    between atoms: _220  and  _221
REMARK   95  A    between atoms: _220  and  _223
REMARK   96  A    between atoms: _223  and  _224
REMARK   97  A    between atoms: _229  and  _231
REMARK   98  A    between atoms: _231  and  _232
REMARK   99  A    between atoms: _234  and  _236
REMARK  100  A    between atoms: _236  and  _237
REMARK  101  A    between atoms: _236  and  _239
REMARK  102  A    between atoms: _239  and  _240
REMARK  103  A    between atoms: _243  and  _245
REMARK  104  A    between atoms: _245  and  _246
REMARK  105  A    between atoms: _245  and  _248
REMARK  106  A    between atoms: _248  and  _249
REMARK  107  A    between atoms: _252  and  _254
REMARK  108  A    between atoms: _254  and  _255
REMARK  109  A    between atoms: _258  and  _260
REMARK  110  A    between atoms: _260  and  _261
REMARK  111  A    between atoms: _260  and  _263
REMARK  112  A    between atoms: _266  and  _268
REMARK  113  A    between atoms: _268  and  _269
REMARK  114  A    between atoms: _268  and  _271
REMARK  115  A    between atoms: _271  and  _272
REMARK  116  A    between atoms: _272  and  _273
REMARK  117  A    between atoms: _276  and  _278
REMARK  118  A    between atoms: _278  and  _279
REMARK  119  A    between atoms: _278  and  _281
REMARK  120  A    between atoms: _281  and  _282
REMARK  121  A    between atoms: _282  and  _283
REMARK  122  A    between atoms: _285  and  _287
REMARK  123  A    between atoms: _287  and  _288
REMARK  124  A    between atoms: _287  and  _290
REMARK  125  A    between atoms: _290  and  _291
REMARK  126  A    between atoms: _291  and  _292
REMARK  127  A    between atoms: _295  and  _297
REMARK  128  A    between atoms: _297  and  _298
REMARK  129  A    between atoms: _301  and  _303
REMARK  130  A    between atoms: _303  and  _304
REMARK  131  A    between atoms: _303  and  _306
REMARK  132  A    between atoms: _306  and  _307
REMARK  133  A    between atoms: _310  and  _312
REMARK  134  A    between atoms: _312  and  _313
REMARK  135  A    between atoms: _312  and  _315
REMARK  136  A    between atoms: _315  and  _316
REMARK  137  A    between atoms: _319  and  _321
REMARK  138  A    between atoms: _321  and  _322
REMARK  139  A    between atoms: _321  and  _324
REMARK  140  A    between atoms: _324  and  _325
REMARK  141  A    between atoms: _325  and  _326
REMARK  142  A    between atoms: _326  and  _327
REMARK  143  A    between atoms: _336  and  _338
REMARK  144  A    between atoms: _338  and  _339
REMARK  145  A    between atoms: _342  and  _344
REMARK  146  A    between atoms: _344  and  _345
REMARK  147  A    between atoms: _344  and  _347
REMARK  148  A    between atoms: _347  and  _348
REMARK  149  A    between atoms: _351  and  _353
REMARK  150  A    between atoms: _353  and  _354
REMARK  151  A    between atoms: _353  and  _356
REMARK  152  A    between atoms: _356  and  _357
REMARK  153  A    between atoms: _359  and  _361
REMARK  154  A    between atoms: _361  and  _362
REMARK  155  A    between atoms: _361  and  _364
REMARK  156  A    between atoms: _364  and  _365
REMARK  157  A    between atoms: _368  and  _370
REMARK  158  A    between atoms: _370  and  _371
REMARK  159  A    between atoms: _370  and  _373
REMARK  160  A    between atoms: _376  and  _378
REMARK  161  A    between atoms: _378  and  _379
REMARK  162  A    between atoms: _382  and  _384
REMARK  163  A    between atoms: _384  and  _385
REMARK  164  A    between atoms: _384  and  _387
REMARK  165  A    between atoms: _387  and  _388
REMARK  166  A    between atoms: _391  and  _393
REMARK  167  A    between atoms: _393  and  _394
REMARK  168  A    between atoms: _393  and  _396
REMARK  169  A    between atoms: _396  and  _397
REMARK  170  A    between atoms: _399  and  _401
REMARK  171  A    between atoms: _401  and  _402
REMARK  172  A    between atoms: _401  and  _404
REMARK  173  A    between atoms: _404  and  _405
REMARK  174  A    between atoms: _410  and  _412
REMARK  175  A    between atoms: _412  and  _413
REMARK  176  A    between atoms: _412  and  _415
REMARK  177  A    between atoms: _415  and  _416
REMARK  178  A    between atoms: _418  and  _420
REMARK  179  A    between atoms: _420  and  _421
REMARK  180  A    between atoms: _420  and  _423
REMARK  181  A    between atoms: _423  and  _424
REMARK  182  A    between atoms: _430  and  _432
REMARK  183  A    between atoms: _432  and  _433
REMARK  184  A    between atoms: _432  and  _435
REMARK  185  A    between atoms: _435  and  _436
REMARK  186  A    between atoms: _439  and  _441
REMARK  187  A    between atoms: _441  and  _442
REMARK  188  A    between atoms: _441  and  _444
REMARK  189  A    between atoms: _444  and  _445
REMARK  190  A    between atoms: _448  and  _450
REMARK  191  A    between atoms: _450  and  _451
REMARK  192  A    between atoms: _454  and  _456
REMARK  193  A    between atoms: _456  and  _457
REMARK  194  A    between atoms: _456  and  _459
REMARK  195  A    between atoms: _459  and  _460
REMARK  196  A    between atoms: _463  and  _465
REMARK  197  A    between atoms: _465  and  _466
REMARK  198  A    between atoms: _465  and  _468
REMARK  199  A    between atoms: _471  and  _473
REMARK  200  A    between atoms: _473  and  _474
REMARK  201  A    between atoms: _477  and  _479
REMARK  202  A    between atoms: _479  and  _480
REMARK  203  A    between atoms: _479  and  _482
REMARK  204  A    between atoms: _482  and  _483
REMARK  205  A    between atoms: _489  and  _491
REMARK  206  A    between atoms: _491  and  _492
REMARK  207  A    between atoms: _491  and  _494
REMARK  208  A    between atoms: _494  and  _495
REMARK  209  A    between atoms: _500  and  _501
REMARK  210  A    between atoms: _503  and  _505
REMARK  211  A    between atoms: _505  and  _506
REMARK  212  A    between atoms: _505  and  _508
REMARK  213  A    between atoms: _508  and  _509
REMARK  214  A    between atoms: _513  and  _514
REMARK                            x       y       z     vdW  Elec       q    Type
REMARK                         _______ _______ _______ _____ _____    ______ ____
ROOT
ATOM      1  CA  ALA A   1      63.689  71.969  12.713  0.00  0.00    +0.133 C 
ATOM      2  CB  ALA A   1      62.430  72.109  13.587  0.00  0.00    +0.027 C 
ENDROOT
BRANCH   1   3
ATOM      3  N   ALA A   1      63.679  70.690  12.015  0.00  0.00    -0.239 NA
ATOM      4  H   ALA A   1      62.898  70.021  12.173  0.00  0.00    +0.142 HD
ENDBRANCH   1   3
BRANCH   1   5
ATOM      5  C   ALA A   1      64.952  72.041  13.576  0.00  0.00    +0.224 C 
ATOM      6  O   ALA A   1      65.622  73.074  13.630  0.00  0.00    -0.287 OA
ENDBRANCH   1   5
TORSDOF 2
REMARK  Name = ../refined-set-2016/1y6r/1y6r_pocket.pdb
REMARK  214 active torsions:
REMARK  status: ('A' for Active; 'I' for Inactive)
REMARK    1  A    between atoms: _1  and  _3
REMARK    2  A    between atoms: _3  and  _4
REMARK    3  A    between atoms: _6  and  _8
REMARK    4  A    between atoms: _8  and  _9
REMARK    5  A    between atoms: _12  and  _14
REMARK    6  A    between atoms: _14  and  _15
REMARK    7  A    between atoms: _14  and  _17
REMARK    8  A    between atoms: _17  and  _18
REMARK    9  A    between atoms: _18  and  _19
REMARK   10  A    between atoms: _21  and  _23
REMARK   11  A    between atoms: _23  and  _24
REMARK   12  A    between atoms: _23  and  _26
REMARK   13  A    between atoms: _26  and  _27
REMARK   14  A    between atoms: _27  and  _28
REMARK   15  A    between atoms: _31  and  _33
REMARK   16  A    between atoms: _33  and  _34
REMARK   17  A    between atoms: _33  and  _36
REMARK   18  A    between atoms: _36  and  _37
REMARK   19  A    between atoms: _39  and  _41
REMARK   20  A    between atoms: _41  and  _42
REMARK   21  A    between atoms: _44  and  _46
REMARK   22  A    between atoms: _46  and  _47
REMARK   23  A    between atoms: _46  and  _49
REMARK   24  A    between atoms: _49  and  _50
REMARK   25  A    between atoms: _53  and  _55
REMARK   26  A    between atoms: _55  and  _56
REMARK   27  A    between atoms: _58  and  _60
REMARK   28  A    between atoms: _60  and  _61
REMARK   29  A    between atoms: _60  and  _63
REMARK   30  A    between atoms: _63  and  _64
REMARK   31  A    between atoms: _64  and  _65
REMARK   32  A    between atoms: _65  and  _66
REMARK   33  A    between atoms: _66  and  _67
REMARK   34  A    between atoms: _71  and  _73
REMARK   35  A    between atoms: _73  and  _74
REMARK   36  A    between atoms: _77  and  _79
REMARK   37  A    between atoms: _79  and  _80
REMARK   38  A    between atoms: _83  and  _85
REMARK   39  A    between atoms: _85  and  _86
REMARK   40  A    between atoms: _85  and  _88
REMARK   41  A    between atoms: _88  and  _89
REMARK   42  A    between atoms: _94  and  _96
REMARK   43  A    between atoms: _96  and  _97
REMARK   44  A    between atoms: _96  and  _99
REMARK   45  A    between atoms: _99  and  _100
REMARK   46  A    between atoms: _103  and  _105
REMARK   47  A    between atoms: _105  and  _106
REMARK   48  A    between atoms: _108  and  _110
REMARK   49  A    between atoms: _110  and  _111
REMARK   50  A    between atoms: _110  and  _113
REMARK   51  A    between atoms: _113  and  _114
REMARK   52  A    between atoms: _116  and  _118
REMARK   53  A    between atoms: _118  and  _119
REMARK   54  A    between atoms: _122  and  _124
REMARK   55  A    between atoms: _124  and  _125
REMARK   56  A    between atoms: _127  and  _129
REMARK   57  A    between atoms: _129  and  _130
REMARK   58  A    between atoms: _132  and  _134
REMARK   59  A    between atoms: _134  and  _135
REMARK   60  A    between atoms: _134  and  _137
REMARK   61  A    between atoms: _137  and  _138
REMARK   62  A    between atoms: _141  and  _143
REMARK   63  A    between atoms: _143  and  _144
REMARK   64  A    between atoms: _143  and  _146
REMARK   65  A    between atoms: _146  and  _147
REMARK   66  A    between atoms: _152  and  _154
REMARK   67  A    between atoms: _154  and  _155
REMARK   68  A    between atoms: _154  and  _157
REMARK   69  A    between atoms: _157  and  _158
REMARK   70  A    between atoms: _161  and  _163
REMARK   71  A    between atoms: _163  and  _164
REMARK   72  A    between atoms: _163  and  _166
REMARK   73  A    between atoms: _169  and  _171
REMARK   74  A    between atoms: _171  and  _172
REMARK   75  A    between atoms: _171  and  _174
REMARK   76  A    between atoms: _174  and  _175
REMARK   77  A    between atoms: _177  and  _179
REMARK   78  A    between atoms: _179  and  _180
REMARK   79  A    between atoms: _182  and  _184
REMARK   80  A    between atoms: _184  and  _185
REMARK   81  A    between atoms: _184  and  _187
REMARK   82  A    between atoms: _187  and  _188
REMARK   83  A    between atoms: _191  and  _193
REMARK   84  A    between atoms: _193  and  _194
REMARK   85  A    between atoms: _197  and  _199
REMARK   86  A    between atoms: _199  and  _200
REMARK   87  A    between atoms: _199  and  _202
REMARK   88  A    between atoms: _202  and  _203
REMARK   89  A    between atoms: _209  and  _211
REMARK   90  A    between atoms: _211  and  _212
REMARK   91  A    between atoms: _211  and  _214
REMARK   92  A    between atoms: _214  and  _215
REMARK   93  A    between atoms: _218  and  _220
REMARK   94  A    between atoms: _220  and  _221
REMARK   95  A    between atoms: _220  and  _223
REMARK   96  A    between atoms: _223  and  _224
REMARK   97  A    between atoms: _229  and  _231
REMARK   98  A    between atoms: _231  and  _232
REMARK   99  A    between atoms: _234  and  _236
REMARK  100  A    between atoms: _236  and  _237
REMARK  101  A    between atoms: _236  and  _239
REMARK  102  A    between atoms: _239  and  _240
REMARK  103  A    between atoms: _243  and  _245
REMARK  104  A    between atoms: _245  and  _246
REMARK  105  A    between atoms: _245  and  _248
REMARK  106  A    between atoms: _248  and  _249
REMARK  107  A    between atoms: _252  and  _254
REMARK  108  A    between atoms: _254  and  _255
REMARK  109  A    between atoms: _258  and  _260
REMARK  110  A    between atoms: _260  and  _261
REMARK  111  A    between atoms: _260  and  _263
REMARK  112  A    between atoms: _266  and  _268
REMARK  113  A    between atoms: _268  and  _269
REMARK  114  A    between atoms: _268  and  _271
REMARK  115  A    between atoms: _271  and  _272
REMARK  116  A    between atoms: _272  and  _273
REMARK  117  A    between atoms: _276  and  _278
REMARK  118  A    between atoms: _278  and  _279
REMARK  119  A    between atoms: _278  and  _281
REMARK  120  A    between atoms: _281  and  _282
REMARK  121  A    between atoms: _282  and  _283
REMARK  122  A    between atoms: _285  and  _287
REMARK  123  A    between atoms: _287  and  _288
REMARK  124  A    between atoms: _287  and  _290
REMARK  125  A    between atoms: _290  and  _291
REMARK  126  A    between atoms: _291  and  _292
REMARK  127  A    between atoms: _295  and  _297
REMARK  128  A    between atoms: _297  and  _298
REMARK  129  A    between atoms: _301  and  _303
REMARK  130  A    between atoms: _303  and  _304
REMARK  131  A    between atoms: _303  and  _306
REMARK  132  A    between atoms: _306  and  _307
REMARK  133  A    between atoms: _310  and  _312
REMARK  134  A    between atoms: _312  and  _313
REMARK  135  A    between atoms: _312  and  _315
REMARK  136  A    between atoms: _315  and  _316
REMARK  137  A    between atoms: _319  and  _321
REMARK  138  A    between atoms: _321  and  _322
REMARK  139  A    between atoms: _321  and  _324
REMARK  140  A    between atoms: _324  and  _325
REMARK  141  A    between atoms: _325  and  _326
REMARK  142  A    between atoms: _326  and  _327
REMARK  143  A    between atoms: _336  and  _338
REMARK  144  A    between atoms: _338  and  _339
REMARK  145  A    between atoms: _342  and  _344
REMARK  146  A    between atoms: _344  and  _345
REMARK  147  A    between atoms: _344  and  _347
REMARK  148  A    between atoms: _347  and  _348
REMARK  149  A    between atoms: _351  and  _353
REMARK  150  A    between atoms: _353  and  _354
REMARK  151  A    between atoms: _353  and  _356
REMARK  152  A    between atoms: _356  and  _357
REMARK  153  A    between atoms: _359  and  _361
REMARK  154  A    between atoms: _361  and  _362
REMARK  155  A    between atoms: _361  and  _364
REMARK  156  A    between atoms: _364  and  _365
REMARK  157  A    between atoms: _368  and  _370
REMARK  158  A    between atoms: _370  and  _371
REMARK  159  A    between atoms: _370  and  _373
REMARK  160  A    between atoms: _376  and  _378
REMARK  161  A    between atoms: _378  and  _379
REMARK  162  A    between atoms: _382  and  _384
REMARK  163  A    between atoms: _384  and  _385
REMARK  164  A    between atoms: _384  and  _387
REMARK  165  A    between atoms: _387  and  _388
REMARK  166  A    between atoms: _391  and  _393
REMARK  167  A    between atoms: _393  and  _394
REMARK  168  A    between atoms: _393  and  _396
REMARK  169  A    between atoms: _396  and  _397
REMARK  170  A    between atoms: _399  and  _401
REMARK  171  A    between atoms: _401  and  _402
REMARK  172  A    between atoms: _401  and  _404
REMARK  173  A    between atoms: _404  and  _405
REMARK  174  A    between atoms: _410  and  _412
REMARK  175  A    between atoms: _412  and  _413
REMARK  176  A    between atoms: _412  and  _415
REMARK  177  A    between atoms: _415  and  _416
REMARK  178  A    between atoms: _418  and  _420
REMARK  179  A    between atoms: _420  and  _421
REMARK  180  A    between atoms: _420  and  _423
REMARK  181  A    between atoms: _423  and  _424
REMARK  182  A    between atoms: _430  and  _432
REMARK  183  A    between atoms: _432  and  _433
REMARK  184  A    between atoms: _432  and  _435
REMARK  185  A    between atoms: _435  and  _436
REMARK  186  A    between atoms: _439  and  _441
REMARK  187  A    between atoms: _441  and  _442
REMARK  188  A    between atoms: _441  and  _444
REMARK  189  A    between atoms: _444  and  _445
REMARK  190  A    between atoms: _448  and  _450
REMARK  191  A    between atoms: _450  and  _451
REMARK  192  A    between atoms: _454  and  _456
REMARK  193  A    between atoms: _456  and  _457
REMARK  194  A    between atoms: _456  and  _459
REMARK  195  A    between atoms: _459  and  _460
REMARK  196  A    between atoms: _463  and  _465
REMARK  197  A    between atoms: _465  and  _466
REMARK  198  A    between atoms: _465  and  _468
REMARK  199  A    between atoms: _471  and  _473
REMARK  200  A    between atoms: _473  and  _474
REMARK  201  A    between atoms: _477  and  _479
REMARK  202  A    between atoms: _479  and  _480
REMARK  203  A    between atoms: _479  and  _482
REMARK  204  A    between atoms: _482  and  _483
REMARK  205  A    between atoms: _489  and  _491
REMARK  206  A    between atoms: _491  and  _492
REMARK  207  A    between atoms: _491  and  _494
REMARK  208  A    between atoms: _494  and  _495
REMARK  209  A    between atoms: _500  and  _501
REMARK  210  A    between atoms: _503  and  _505
REMARK  211  A    between atoms: _505  and  _506
REMARK  212  A    between atoms: _505  and  _508
REMARK  213  A    between atoms: _508  and  _509
REMARK  214  A    between atoms: _513  and  _514
REMARK                            x       y       z     vdW  Elec       q    Type
REMARK                         _______ _______ _______ _____ _____    ______ ____
ROOT
ATOM      1  C   ASP A   1      48.831  71.208  26.672  0.00  0.00    +0.239 C 
ATOM      2  N   VAL A   2      49.239  69.969  26.891  0.00  0.00    -0.298 N 
ATOM      3  H   VAL A   2      49.009  69.507  27.794  0.00  0.00    +0.150 HD
ATOM      4  O   ASP A   1      49.072  71.815  25.624  0.00  0.00    -0.274 OA
ENDROOT
BRANCH   1   5
ATOM      5  CA  ASP A   1      48.008  71.841  27.788  0.00  0.00    +0.156 C 
BRANCH   5   6
ATOM      6  N   ASP A   1      48.720  72.788  28.631  0.00  0.00    -0.238 NA
ATOM      7  H   ASP A   1      49.474  73.378  28.225  0.00  0.00    +0.142 HD
ENDBRANCH   5   6
BRANCH   5   8
ATOM      8  CB  ASP A   1      46.788  72.542  27.196  0.00  0.00    +0.140 C 
BRANCH   8   9
ATOM      9  CG  ASP A   1      45.956  71.633  26.311  0.00  0.00    +0.367 C 
ATOM     10  OD2 ASP A   1      46.359  70.462  26.076  0.00  0.00    -0.246 OA
ATOM     11  OD1 ASP A   1      44.888  72.110  25.847  0.00  0.00    -0.246 OA
ENDBRANCH   8   9
ENDBRANCH   5   8
ENDBRANCH   1   5
BRANCH   2  12
ATOM     12  CA  VAL A   2      50.005  69.241  25.888  0.00  0.00    +0.137 C 
BRANCH  12  13
ATOM     13  CB  VAL A   2      51.488  69.050  26.372  0.00  0.00    +0.026 C 
ATOM     14  CG2 VAL A   2      52.056  70.388  26.803  0.00  0.00    +0.002 C 
ATOM     15  CG1 VAL A   2      52.348  68.494  25.244  0.00  0.00    +0.002 C 
ENDBRANCH  12  13
BRANCH  12  16
ATOM     16  C   VAL A   2      49.285  67.892  25.668  0.00  0.00    +0.227 C 
ATOM     17  O   VAL A   2      49.905  66.845  25.433  0.00  0.00    -0.286 OA
ENDBRANCH  12  16
ENDBRANCH   2  12
TORSDOF 7
REMARK  Name = ../refined-set-2016/1y6r/1y6r_pocket.pdb
REMARK  214 active torsions:
REMARK  status: ('A' for Active; 'I' for Inactive)
REMARK    1  A    between atoms: _1  and  _3
REMARK    2  A    between atoms: _3  and  _4
REMARK    3  A    between atoms: _6  and  _8
REMARK    4  A    between atoms: _8  and  _9
REMARK    5  A    between atoms: _12  and  _14
REMARK    6  A    between atoms: _14  and  _15
REMARK    7  A    between atoms: _14  and  _17
REMARK    8  A    between atoms: _17  and  _18
REMARK    9  A    between atoms: _18  and  _19
REMARK   10  A    between atoms: _21  and  _23
REMARK   11  A    between atoms: _23  and  _24
REMARK   12  A    between atoms: _23  and  _26
REMARK   13  A    between atoms: _26  and  _27
REMARK   14  A    between atoms: _27  and  _28
REMARK   15  A    between atoms: _31  and  _33
REMARK   16  A    between atoms: _33  and  _34
REMARK   17  A    between atoms: _33  and  _36
REMARK   18  A    between atoms: _36  and  _37
REMARK   19  A    between atoms: _39  and  _41
REMARK   20  A    between atoms: _41  and  _42
REMARK   21  A    between atoms: _44  and  _46
REMARK   22  A    between atoms: _46  and  _47
REMARK   23  A    between atoms: _46  and  _49
REMARK   24  A    between atoms: _49  and  _50
REMARK   25  A    between atoms: _53  and  _55
REMARK   26  A    between atoms: _55  and  _56
REMARK   27  A    between atoms: _58  and  _60
REMARK   28  A    between atoms: _60  and  _61
REMARK   29  A    between atoms: _60  and  _63
REMARK   30  A    between atoms: _63  and  _64
REMARK   31  A    between atoms: _64  and  _65
REMARK   32  A    between atoms: _65  and  _66
REMARK   33  A    between atoms: _66  and  _67
REMARK   34  A    between atoms: _71  and  _73
REMARK   35  A    between atoms: _73  and  _74
REMARK   36  A    between atoms: _77  and  _79
REMARK   37  A    between atoms: _79  and  _80
REMARK   38  A    between atoms: _83  and  _85
REMARK   39  A    between atoms: _85  and  _86
REMARK   40  A    between atoms: _85  and  _88
REMARK   41  A    between atoms: _88  and  _89
REMARK   42  A    between atoms: _94  and  _96
REMARK   43  A    between atoms: _96  and  _97
REMARK   44  A    between atoms: _96  and  _99
REMARK   45  A    between atoms: _99  and  _100
REMARK   46  A    between atoms: _103  and  _105
REMARK   47  A    between atoms: _105  and  _106
REMARK   48  A    between atoms: _108  and  _110
REMARK   49  A    between atoms: _110  and  _111
REMARK   50  A    between atoms: _110  and  _113
REMARK   51  A    between atoms: _113  and  _114
REMARK   52  A    between atoms: _116  and  _118
REMARK   53  A    between atoms: _118  and  _119
REMARK   54  A    between atoms: _122  and  _124
REMARK   55  A    between atoms: _124  and  _125
REMARK   56  A    between atoms: _127  and  _129
REMARK   57  A    between atoms: _129  and  _130
REMARK   58  A    between atoms: _132  and  _134
REMARK   59  A    between atoms: _134  and  _135
REMARK   60  A    between atoms: _134  and  _137
REMARK   61  A    between atoms: _137  and  _138
REMARK   62  A    between atoms: _141  and  _143
REMARK   63  A    between atoms: _143  and  _144
REMARK   64  A    between atoms: _143  and  _146
REMARK   65  A    between atoms: _146  and  _147
REMARK   66  A    between atoms: _152  and  _154
REMARK   67  A    between atoms: _154  and  _155
REMARK   68  A    between atoms: _154  and  _157
REMARK   69  A    between atoms: _157  and  _158
REMARK   70  A    between atoms: _161  and  _163
REMARK   71  A    between atoms: _163  and  _164
REMARK   72  A    between atoms: _163  and  _166
REMARK   73  A    between atoms: _169  and  _171
REMARK   74  A    between atoms: _171  and  _172
REMARK   75  A    between atoms: _171  and  _174
REMARK   76  A    between atoms: _174  and  _175
REMARK   77  A    between atoms: _177  and  _179
REMARK   78  A    between atoms: _179  and  _180
REMARK   79  A    between atoms: _182  and  _184
REMARK   80  A    between atoms: _184  and  _185
REMARK   81  A    between atoms: _184  and  _187
REMARK   82  A    between atoms: _187  and  _188
REMARK   83  A    between atoms: _191  and  _193
REMARK   84  A    between atoms: _193  and  _194
REMARK   85  A    between atoms: _197  and  _199
REMARK   86  A    between atoms: _199  and  _200
REMARK   87  A    between atoms: _199  and  _202
REMARK   88  A    between atoms: _202  and  _203
REMARK   89  A    between atoms: _209  and  _211
REMARK   90  A    between atoms: _211  and  _212
REMARK   91  A    between atoms: _211  and  _214
REMARK   92  A    between atoms: _214  and  _215
REMARK   93  A    between atoms: _218  and  _220
REMARK   94  A    between atoms: _220  and  _221
REMARK   95  A    between atoms: _220  and  _223
REMARK   96  A    between atoms: _223  and  _224
REMARK   97  A    between atoms: _229  and  _231
REMARK   98  A    between atoms: _231  and  _232
REMARK   99  A    between atoms: _234  and  _236
REMARK  100  A    between atoms: _236  and  _237
REMARK  101  A    between atoms: _236  and  _239
REMARK  102  A    between atoms: _239  and  _240
REMARK  103  A    between atoms: _243  and  _245
REMARK  104  A    between atoms: _245  and  _246
REMARK  105  A    between atoms: _245  and  _248
REMARK  106  A    between atoms: _248  and  _249
REMARK  107  A    between atoms: _252  and  _254
REMARK  108  A    between atoms: _254  and  _255
REMARK  109  A    between atoms: _258  and  _260
REMARK  110  A    between atoms: _260  and  _261
REMARK  111  A    between atoms: _260  and  _263
REMARK  112  A    between atoms: _266  and  _268
REMARK  113  A    between atoms: _268  and  _269
REMARK  114  A    between atoms: _268  and  _271
REMARK  115  A    between atoms: _271  and  _272
REMARK  116  A    between atoms: _272  and  _273
REMARK  117  A    between atoms: _276  and  _278
REMARK  118  A    between atoms: _278  and  _279
REMARK  119  A    between atoms: _278  and  _281
REMARK  120  A    between atoms: _281  and  _282
REMARK  121  A    between atoms: _282  and  _283
REMARK  122  A    between atoms: _285  and  _287
REMARK  123  A    between atoms: _287  and  _288
REMARK  124  A    between atoms: _287  and  _290
REMARK  125  A    between atoms: _290  and  _291
REMARK  126  A    between atoms: _291  and  _292
REMARK  127  A    between atoms: _295  and  _297
REMARK  128  A    between atoms: _297  and  _298
REMARK  129  A    between atoms: _301  and  _303
REMARK  130  A    between atoms: _303  and  _304
REMARK  131  A    between atoms: _303  and  _306
REMARK  132  A    between atoms: _306  and  _307
REMARK  133  A    between atoms: _310  and  _312
REMARK  134  A    between atoms: _312  and  _313
REMARK  135  A    between atoms: _312  and  _315
REMARK  136  A    between atoms: _315  and  _316
REMARK  137  A    between atoms: _319  and  _321
REMARK  138  A    between atoms: _321  and  _322
REMARK  139  A    between atoms: _321  and  _324
REMARK  140  A    between atoms: _324  and  _325
REMARK  141  A    between atoms: _325  and  _326
REMARK  142  A    between atoms: _326  and  _327
REMARK  143  A    between atoms: _336  and  _338
REMARK  144  A    between atoms: _338  and  _339
REMARK  145  A    between atoms: _342  and  _344
REMARK  146  A    between atoms: _344  and  _345
REMARK  147  A    between atoms: _344  and  _347
REMARK  148  A    between atoms: _347  and  _348
REMARK  149  A    between atoms: _351  and  _353
REMARK  150  A    between atoms: _353  and  _354
REMARK  151  A    between atoms: _353  and  _356
REMARK  152  A    between atoms: _356  and  _357
REMARK  153  A    between atoms: _359  and  _361
REMARK  154  A    between atoms: _361  and  _362
REMARK  155  A    between atoms: _361  and  _364
REMARK  156  A    between atoms: _364  and  _365
REMARK  157  A    between atoms: _368  and  _370
REMARK  158  A    between atoms: _370  and  _371
REMARK  159  A    between atoms: _370  and  _373
REMARK  160  A    between atoms: _376  and  _378
REMARK  161  A    between atoms: _378  and  _379
REMARK  162  A    between atoms: _382  and  _384
REMARK  163  A    between atoms: _384  and  _385
REMARK  164  A    between atoms: _384  and  _387
REMARK  165  A    between atoms: _387  and  _388
REMARK  166  A    between atoms: _391  and  _393
REMARK  167  A    between atoms: _393  and  _394
REMARK  168  A    between atoms: _393  and  _396
REMARK  169  A    between atoms: _396  and  _397
REMARK  170  A    between atoms: _399  and  _401
REMARK  171  A    between atoms: _401  and  _402
REMARK  172  A    between atoms: _401  and  _404
REMARK  173  A    between atoms: _404  and  _405
REMARK  174  A    between atoms: _410  and  _412
REMARK  175  A    between atoms: _412  and  _413
REMARK  176  A    between atoms: _412  and  _415
REMARK  177  A    between atoms: _415  and  _416
REMARK  178  A    between atoms: _418  and  _420
REMARK  179  A    between atoms: _420  and  _421
REMARK  180  A    between atoms: _420  and  _423
REMARK  181  A    between atoms: _423  and  _424
REMARK  182  A    between atoms: _430  and  _432
REMARK  183  A    between atoms: _432  and  _433
REMARK  184  A    between atoms: _432  and  _435
REMARK  185  A    between atoms: _435  and  _436
REMARK  186  A    between atoms: _439  and  _441
REMARK  187  A    between atoms: _441  and  _442
REMARK  188  A    between atoms: _441  and  _444
REMARK  189  A    between atoms: _444  and  _445
REMARK  190  A    between atoms: _448  and  _450
REMARK  191  A    between atoms: _450  and  _451
REMARK  192  A    between atoms: _454  and  _456
REMARK  193  A    between atoms: _456  and  _457
REMARK  194  A    between atoms: _456  and  _459
REMARK  195  A    between atoms: _459  and  _460
REMARK  196  A    between atoms: _463  and  _465
REMARK  197  A    between atoms: _465  and  _466
REMARK  198  A    between atoms: _465  and  _468
REMARK  199  A    between atoms: _471  and  _473
REMARK  200  A    between atoms: _473  and  _474
REMARK  201  A    between atoms: _477  and  _479
REMARK  202  A    between atoms: _479  and  _480
REMARK  203  A    between atoms: _479  and  _482
REMARK  204  A    between atoms: _482  and  _483
REMARK  205  A    between atoms: _489  and  _491
REMARK  206  A    between atoms: _491  and  _492
REMARK  207  A    between atoms: _491  and  _494
REMARK  208  A    between atoms: _494  and  _495
REMARK  209  A    between atoms: _500  and  _501
REMARK  210  A    between atoms: _503  and  _505
REMARK  211  A    between atoms: _505  and  _506
REMARK  212  A    between atoms: _505  and  _508
REMARK  213  A    between atoms: _508  and  _509
REMARK  214  A    between atoms: _513  and  _514
REMARK                            x       y       z     vdW  Elec       q    Type
REMARK                         _______ _______ _______ _____ _____    ______ ____
ROOT
ATOM      1  CA  PHE A   2      50.629  64.351  22.758  0.00  0.00    +0.141 C 
ENDROOT
BRANCH   1   3
ATOM      2  C   ALA A   1      48.776  65.575  21.738  0.00  0.00    +0.238 C 
ATOM      3  N   PHE A   2      49.664  65.456  22.727  0.00  0.00    -0.298 N 
ATOM      4  H   PHE A   2      49.672  66.161  23.492  0.00  0.00    +0.150 HD
ATOM      5  O   ALA A   1      48.722  64.786  20.796  0.00  0.00    -0.274 OA
BRANCH   2   6
ATOM      6  CA  ALA A   1      47.790  66.752  21.821  0.00  0.00    +0.145 C 
ATOM      7  CB  ALA A   1      48.295  67.943  21.003  0.00  0.00    +0.028 C 
BRANCH   6   8
ATOM      8  N   ALA A   1      47.629  67.129  23.216  0.00  0.00    -0.238 NA
ATOM      9  H   ALA A   1      47.815  68.110  23.508  0.00  0.00    +0.142 HD
ENDBRANCH   6   8
ENDBRANCH   2   6
ENDBRANCH   1   3
BRANCH   1  10
ATOM     10  C   PHE A   2      50.346  63.334  23.866  0.00  0.00    +0.227 C 
ATOM     11  O   PHE A   2      51.228  62.560  24.239  0.00  0.00    -0.286 OA
ENDBRANCH   1  10
BRANCH   1  12
ATOM     12  CB  PHE A   2      52.077  64.862  22.899  0.00  0.00    +0.054 C 
BRANCH  12  13
ATOM     13  CG  PHE A   2      52.544  65.688  21.728  0.00  0.00    -0.020 A 
ATOM     14  CD2 PHE A   2      52.580  67.080  21.808  0.00  0.00    -0.004 A 
ATOM     15  CE2 PHE A   2      52.957  67.853  20.700  0.00  0.00    -0.000 A 
ATOM     16  CZ  PHE A   2      53.302  67.227  19.502  0.00  0.00    -0.000 A 
ATOM     17  CE1 PHE A   2      53.268  65.836  19.418  0.00  0.00    -0.000 A 
ATOM     18  CD1 PHE A   2      52.892  65.077  20.530  0.00  0.00    -0.004 A 
ENDBRANCH  12  13
ENDBRANCH   1  12
TORSDOF 6
REMARK  Name = ../refined-set-2016/1y6r/1y6r_pocket.pdb
REMARK  214 active torsions:
REMARK  status: ('A' for Active; 'I' for Inactive)
REMARK    1  A    between atoms: _1  and  _3
REMARK    2  A    between atoms: _3  and  _4
REMARK    3  A    between atoms: _6  and  _8
REMARK    4  A    between atoms: _8  and  _9
REMARK    5  A    between atoms: _12  and  _14
REMARK    6  A    between atoms: _14  and  _15
REMARK    7  A    between atoms: _14  and  _17
REMARK    8  A    between atoms: _17  and  _18
REMARK    9  A    between atoms: _18  and  _19
REMARK   10  A    between atoms: _21  and  _23
REMARK   11  A    between atoms: _23  and  _24
REMARK   12  A    between atoms: _23  and  _26
REMARK   13  A    between atoms: _26  and  _27
REMARK   14  A    between atoms: _27  and  _28
REMARK   15  A    between atoms: _31  and  _33
REMARK   16  A    between atoms: _33  and  _34
REMARK   17  A    between atoms: _33  and  _36
REMARK   18  A    between atoms: _36  and  _37
REMARK   19  A    between atoms: _39  and  _41
REMARK   20  A    between atoms: _41  and  _42
REMARK   21  A    between atoms: _44  and  _46
REMARK   22  A    between atoms: _46  and  _47
REMARK   23  A    between atoms: _46  and  _49
REMARK   24  A    between atoms: _49  and  _50
REMARK   25  A    between atoms: _53  and  _55
REMARK   26  A    between atoms: _55  and  _56
REMARK   27  A    between atoms: _58  and  _60
REMARK   28  A    between atoms: _60  and  _61
REMARK   29  A    between atoms: _60  and  _63
REMARK   30  A    between atoms: _63  and  _64
REMARK   31  A    between atoms: _64  and  _65
REMARK   32  A    between atoms: _65  and  _66
REMARK   33  A    between atoms: _66  and  _67
REMARK   34  A    between atoms: _71  and  _73
REMARK   35  A    between atoms: _73  and  _74
REMARK   36  A    between atoms: _77  and  _79
REMARK   37  A    between atoms: _79  and  _80
REMARK   38  A    between atoms: _83  and  _85
REMARK   39  A    between atoms: _85  and  _86
REMARK   40  A    between atoms: _85  and  _88
REMARK   41  A    between atoms: _88  and  _89
REMARK   42  A    between atoms: _94  and  _96
REMARK   43  A    between atoms: _96  and  _97
REMARK   44  A    between atoms: _96  and  _99
REMARK   45  A    between atoms: _99  and  _100
REMARK   46  A    between atoms: _103  and  _105
REMARK   47  A    between atoms: _105  and  _106
REMARK   48  A    between atoms: _108  and  _110
REMARK   49  A    between atoms: _110  and  _111
REMARK   50  A    between atoms: _110  and  _113
REMARK   51  A    between atoms: _113  and  _114
REMARK   52  A    between atoms: _116  and  _118
REMARK   53  A    between atoms: _118  and  _119
REMARK   54  A    between atoms: _122  and  _124
REMARK   55  A    between atoms: _124  and  _125
REMARK   56  A    between atoms: _127  and  _129
REMARK   57  A    between atoms: _129  and  _130
REMARK   58  A    between atoms: _132  and  _134
REMARK   59  A    between atoms: _134  and  _135
REMARK   60  A    between atoms: _134  and  _137
REMARK   61  A    between atoms: _137  and  _138
REMARK   62  A    between atoms: _141  and  _143
REMARK   63  A    between atoms: _143  and  _144
REMARK   64  A    between atoms: _143  and  _146
REMARK   65  A    between atoms: _146  and  _147
REMARK   66  A    between atoms: _152  and  _154
REMARK   67  A    between atoms: _154  and  _155
REMARK   68  A    between atoms: _154  and  _157
REMARK   69  A    between atoms: _157  and  _158
REMARK   70  A    between atoms: _161  and  _163
REMARK   71  A    between atoms: _163  and  _164
REMARK   72  A    between atoms: _163  and  _166
REMARK   73  A    between atoms: _169  and  _171
REMARK   74  A    between atoms: _171  and  _172
REMARK   75  A    between atoms: _171  and  _174
REMARK   76  A    between atoms: _174  and  _175
REMARK   77  A    between atoms: _177  and  _179
REMARK   78  A    between atoms: _179  and  _180
REMARK   79  A    between atoms: _182  and  _184
REMARK   80  A    between atoms: _184  and  _185
REMARK   81  A    between atoms: _184  and  _187
REMARK   82  A    between atoms: _187  and  _188
REMARK   83  A    between atoms: _191  and  _193
REMARK   84  A    between atoms: _193  and  _194
REMARK   85  A    between atoms: _197  and  _199
REMARK   86  A    between atoms: _199  and  _200
REMARK   87  A    between atoms: _199  and  _202
REMARK   88  A    between atoms: _202  and  _203
REMARK   89  A    between atoms: _209  and  _211
REMARK   90  A    between atoms: _211  and  _212
REMARK   91  A    between atoms: _211  and  _214
REMARK   92  A    between atoms: _214  and  _215
REMARK   93  A    between atoms: _218  and  _220
REMARK   94  A    between atoms: _220  and  _221
REMARK   95  A    between atoms: _220  and  _223
REMARK   96  A    between atoms: _223  and  _224
REMARK   97  A    between atoms: _229  and  _231
REMARK   98  A    between atoms: _231  and  _232
REMARK   99  A    between atoms: _234  and  _236
REMARK  100  A    between atoms: _236  and  _237
REMARK  101  A    between atoms: _236  and  _239
REMARK  102  A    between atoms: _239  and  _240
REMARK  103  A    between atoms: _243  and  _245
REMARK  104  A    between atoms: _245  and  _246
REMARK  105  A    between atoms: _245  and  _248
REMARK  106  A    between atoms: _248  and  _249
REMARK  107  A    between atoms: _252  and  _254
REMARK  108  A    between atoms: _254  and  _255
REMARK  109  A    between atoms: _258  and  _260
REMARK  110  A    between atoms: _260  and  _261
REMARK  111  A    between atoms: _260  and  _263
REMARK  112  A    between atoms: _266  and  _268
REMARK  113  A    between atoms: _268  and  _269
REMARK  114  A    between atoms: _268  and  _271
REMARK  115  A    between atoms: _271  and  _272
REMARK  116  A    between atoms: _272  and  _273
REMARK  117  A    between atoms: _276  and  _278
REMARK  118  A    between atoms: _278  and  _279
REMARK  119  A    between atoms: _278  and  _281
REMARK  120  A    between atoms: _281  and  _282
REMARK  121  A    between atoms: _282  and  _283
REMARK  122  A    between atoms: _285  and  _287
REMARK  123  A    between atoms: _287  and  _288
REMARK  124  A    between atoms: _287  and  _290
REMARK  125  A    between atoms: _290  and  _291
REMARK  126  A    between atoms: _291  and  _292
REMARK  127  A    between atoms: _295  and  _297
REMARK  128  A    between atoms: _297  and  _298
REMARK  129  A    between atoms: _301  and  _303
REMARK  130  A    between atoms: _303  and  _304
REMARK  131  A    between atoms: _303  and  _306
REMARK  132  A    between atoms: _306  and  _307
REMARK  133  A    between atoms: _310  and  _312
REMARK  134  A    between atoms: _312  and  _313
REMARK  135  A    between atoms: _312  and  _315
REMARK  136  A    between atoms: _315  and  _316
REMARK  137  A    between atoms: _319  and  _321
REMARK  138  A    between atoms: _321  and  _322
REMARK  139  A    between atoms: _321  and  _324
REMARK  140  A    between atoms: _324  and  _325
REMARK  141  A    between atoms: _325  and  _326
REMARK  142  A    between atoms: _326  and  _327
REMARK  143  A    between atoms: _336  and  _338
REMARK  144  A    between atoms: _338  and  _339
REMARK  145  A    between atoms: _342  and  _344
REMARK  146  A    between atoms: _344  and  _345
REMARK  147  A    between atoms: _344  and  _347
REMARK  148  A    between atoms: _347  and  _348
REMARK  149  A    between atoms: _351  and  _353
REMARK  150  A    between atoms: _353  and  _354
REMARK  151  A    between atoms: _353  and  _356
REMARK  152  A    between atoms: _356  and  _357
REMARK  153  A    between atoms: _359  and  _361
REMARK  154  A    between atoms: _361  and  _362
REMARK  155  A    between atoms: _361  and  _364
REMARK  156  A    between atoms: _364  and  _365
REMARK  157  A    between atoms: _368  and  _370
REMARK  158  A    between atoms: _370  and  _371
REMARK  159  A    between atoms: _370  and  _373
REMARK  160  A    between atoms: _376  and  _378
REMARK  161  A    between atoms: _378  and  _379
REMARK  162  A    between atoms: _382  and  _384
REMARK  163  A    between atoms: _384  and  _385
REMARK  164  A    between atoms: _384  and  _387
REMARK  165  A    between atoms: _387  and  _388
REMARK  166  A    between atoms: _391  and  _393
REMARK  167  A    between atoms: _393  and  _394
REMARK  168  A    between atoms: _393  and  _396
REMARK  169  A    between atoms: _396  and  _397
REMARK  170  A    between atoms: _399  and  _401
REMARK  171  A    between atoms: _401  and  _402
REMARK  172  A    between atoms: _401  and  _404
REMARK  173  A    between atoms: _404  and  _405
REMARK  174  A    between atoms: _410  and  _412
REMARK  175  A    between atoms: _412  and  _413
REMARK  176  A    between atoms: _412  and  _415
REMARK  177  A    between atoms: _415  and  _416
REMARK  178  A    between atoms: _418  and  _420
REMARK  179  A    between atoms: _420  and  _421
REMARK  180  A    between atoms: _420  and  _423
REMARK  181  A    between atoms: _423  and  _424
REMARK  182  A    between atoms: _430  and  _432
REMARK  183  A    between atoms: _432  and  _433
REMARK  184  A    between atoms: _432  and  _435
REMARK  185  A    between atoms: _435  and  _436
REMARK  186  A    between atoms: _439  and  _441
REMARK  187  A    between atoms: _441  and  _442
REMARK  188  A    between atoms: _441  and  _444
REMARK  189  A    between atoms: _444  and  _445
REMARK  190  A    between atoms: _448  and  _450
REMARK  191  A    between atoms: _450  and  _451
REMARK  192  A    between atoms: _454  and  _456
REMARK  193  A    between atoms: _456  and  _457
REMARK  194  A    between atoms: _456  and  _459
REMARK  195  A    between atoms: _459  and  _460
REMARK  196  A    between atoms: _463  and  _465
REMARK  197  A    between atoms: _465  and  _466
REMARK  198  A    between atoms: _465  and  _468
REMARK  199  A    between atoms: _471  and  _473
REMARK  200  A    between atoms: _473  and  _474
REMARK  201  A    between atoms: _477  and  _479
REMARK  202  A    between atoms: _479  and  _480
REMARK  203  A    between atoms: _479  and  _482
REMARK  204  A    between atoms: _482  and  _483
REMARK  205  A    between atoms: _489  and  _491
REMARK  206  A    between atoms: _491  and  _492
REMARK  207  A    between atoms: _491  and  _494
REMARK  208  A    between atoms: _494  and  _495
REMARK  209  A    between atoms: _500  and  _501
REMARK  210  A    between atoms: _503  and  _505
REMARK  211  A    between atoms: _505  and  _506
REMARK  212  A    between atoms: _505  and  _508
REMARK  213  A    between atoms: _508  and  _509
REMARK  214  A    between atoms: _513  and  _514
REMARK                            x       y       z     vdW  Elec       q    Type
REMARK                         _______ _______ _______ _____ _____    ______ ____
ROOT
ATOM      1  CG  TYR A   1      52.257  64.939  28.132  0.00  0.00    -0.020 A 
ATOM      2  CD2 TYR A   1      53.203  64.294  28.924  0.00  0.00    -0.001 A 
ATOM      3  CE2 TYR A   1      54.421  63.870  28.395  0.00  0.00    +0.036 A 
ATOM      4  CZ  TYR A   1      54.698  64.092  27.058  0.00  0.00    +0.134 A 
ATOM      5  CE1 TYR A   1      53.781  64.731  26.243  0.00  0.00    +0.036 A 
ATOM      6  CD1 TYR A   1      52.565  65.159  26.783  0.00  0.00    -0.001 A 
ENDROOT
BRANCH   4   7
ATOM      7  OH  TYR A   1      55.894  63.693  26.537  0.00  0.00    -0.506 OA
ATOM      8  HH  TYR A   1      56.431  63.256  27.244  0.00  0.00    +0.292 HD
ENDBRANCH   4   7
BRANCH   1   9
ATOM      9  CB  TYR A   1      50.884  65.284  28.682  0.00  0.00    +0.051 C 
BRANCH   9  10
ATOM     10  CA  TYR A   1      49.894  64.114  28.605  0.00  0.00    +0.137 C 
BRANCH  10  11
ATOM     11  N   TYR A   1      49.583  63.802  27.226  0.00  0.00    -0.239 NA
ATOM     12  H   TYR A   1      49.681  64.538  26.497  0.00  0.00    +0.142 HD
ENDBRANCH  10  11
BRANCH  10  13
ATOM     13  C   TYR A   1      48.551  64.495  29.217  0.00  0.00    +0.224 C 
ATOM     14  O   TYR A   1      47.630  64.868  28.508  0.00  0.00    -0.287 OA
ENDBRANCH  10  13
ENDBRANCH   9  10
ENDBRANCH   1   9
TORSDOF 5
REMARK  Name = ../refined-set-2016/1y6r/1y6r_pocket.pdb
REMARK  214 active torsions:
REMARK  status: ('A' for Active; 'I' for Inactive)
REMARK    1  A    between atoms: _1  and  _3
REMARK    2  A    between atoms: _3  and  _4
REMARK    3  A    between atoms: _6  and  _8
REMARK    4  A    between atoms: _8  and  _9
REMARK    5  A    between atoms: _12  and  _14
REMARK    6  A    between atoms: _14  and  _15
REMARK    7  A    between atoms: _14  and  _17
REMARK    8  A    between atoms: _17  and  _18
REMARK    9  A    between atoms: _18  and  _19
REMARK   10  A    between atoms: _21  and  _23
REMARK   11  A    between atoms: _23  and  _24
REMARK   12  A    between atoms: _23  and  _26
REMARK   13  A    between atoms: _26  and  _27
REMARK   14  A    between atoms: _27  and  _28
REMARK   15  A    between atoms: _31  and  _33
REMARK   16  A    between atoms: _33  and  _34
REMARK   17  A    between atoms: _33  and  _36
REMARK   18  A    between atoms: _36  and  _37
REMARK   19  A    between atoms: _39  and  _41
REMARK   20  A    between atoms: _41  and  _42
REMARK   21  A    between atoms: _44  and  _46
REMARK   22  A    between atoms: _46  and  _47
REMARK   23  A    between atoms: _46  and  _49
REMARK   24  A    between atoms: _49  and  _50
REMARK   25  A    between atoms: _53  and  _55
REMARK   26  A    between atoms: _55  and  _56
REMARK   27  A    between atoms: _58  and  _60
REMARK   28  A    between atoms: _60  and  _61
REMARK   29  A    between atoms: _60  and  _63
REMARK   30  A    between atoms: _63  and  _64
REMARK   31  A    between atoms: _64  and  _65
REMARK   32  A    between atoms: _65  and  _66
REMARK   33  A    between atoms: _66  and  _67
REMARK   34  A    between atoms: _71  and  _73
REMARK   35  A    between atoms: _73  and  _74
REMARK   36  A    between atoms: _77  and  _79
REMARK   37  A    between atoms: _79  and  _80
REMARK   38  A    between atoms: _83  and  _85
REMARK   39  A    between atoms: _85  and  _86
REMARK   40  A    between atoms: _85  and  _88
REMARK   41  A    between atoms: _88  and  _89
REMARK   42  A    between atoms: _94  and  _96
REMARK   43  A    between atoms: _96  and  _97
REMARK   44  A    between atoms: _96  and  _99
REMARK   45  A    between atoms: _99  and  _100
REMARK   46  A    between atoms: _103  and  _105
REMARK   47  A    between atoms: _105  and  _106
REMARK   48  A    between atoms: _108  and  _110
REMARK   49  A    between atoms: _110  and  _111
REMARK   50  A    between atoms: _110  and  _113
REMARK   51  A    between atoms: _113  and  _114
REMARK   52  A    between atoms: _116  and  _118
REMARK   53  A    between atoms: _118  and  _119
REMARK   54  A    between atoms: _122  and  _124
REMARK   55  A    between atoms: _124  and  _125
REMARK   56  A    between atoms: _127  and  _129
REMARK   57  A    between atoms: _129  and  _130
REMARK   58  A    between atoms: _132  and  _134
REMARK   59  A    between atoms: _134  and  _135
REMARK   60  A    between atoms: _134  and  _137
REMARK   61  A    between atoms: _137  and  _138
REMARK   62  A    between atoms: _141  and  _143
REMARK   63  A    between atoms: _143  and  _144
REMARK   64  A    between atoms: _143  and  _146
REMARK   65  A    between atoms: _146  and  _147
REMARK   66  A    between atoms: _152  and  _154
REMARK   67  A    between atoms: _154  and  _155
REMARK   68  A    between atoms: _154  and  _157
REMARK   69  A    between atoms: _157  and  _158
REMARK   70  A    between atoms: _161  and  _163
REMARK   71  A    between atoms: _163  and  _164
REMARK   72  A    between atoms: _163  and  _166
REMARK   73  A    between atoms: _169  and  _171
REMARK   74  A    between atoms: _171  and  _172
REMARK   75  A    between atoms: _171  and  _174
REMARK   76  A    between atoms: _174  and  _175
REMARK   77  A    between atoms: _177  and  _179
REMARK   78  A    between atoms: _179  and  _180
REMARK   79  A    between atoms: _182  and  _184
REMARK   80  A    between atoms: _184  and  _185
REMARK   81  A    between atoms: _184  and  _187
REMARK   82  A    between atoms: _187  and  _188
REMARK   83  A    between atoms: _191  and  _193
REMARK   84  A    between atoms: _193  and  _194
REMARK   85  A    between atoms: _197  and  _199
REMARK   86  A    between atoms: _199  and  _200
REMARK   87  A    between atoms: _199  and  _202
REMARK   88  A    between atoms: _202  and  _203
REMARK   89  A    between atoms: _209  and  _211
REMARK   90  A    between atoms: _211  and  _212
REMARK   91  A    between atoms: _211  and  _214
REMARK   92  A    between atoms: _214  and  _215
REMARK   93  A    between atoms: _218  and  _220
REMARK   94  A    between atoms: _220  and  _221
REMARK   95  A    between atoms: _220  and  _223
REMARK   96  A    between atoms: _223  and  _224
REMARK   97  A    between atoms: _229  and  _231
REMARK   98  A    between atoms: _231  and  _232
REMARK   99  A    between atoms: _234  and  _236
REMARK  100  A    between atoms: _236  and  _237
REMARK  101  A    between atoms: _236  and  _239
REMARK  102  A    between atoms: _239  and  _240
REMARK  103  A    between atoms: _243  and  _245
REMARK  104  A    between atoms: _245  and  _246
REMARK  105  A    between atoms: _245  and  _248
REMARK  106  A    between atoms: _248  and  _249
REMARK  107  A    between atoms: _252  and  _254
REMARK  108  A    between atoms: _254  and  _255
REMARK  109  A    between atoms: _258  and  _260
REMARK  110  A    between atoms: _260  and  _261
REMARK  111  A    between atoms: _260  and  _263
REMARK  112  A    between atoms: _266  and  _268
REMARK  113  A    between atoms: _268  and  _269
REMARK  114  A    between atoms: _268  and  _271
REMARK  115  A    between atoms: _271  and  _272
REMARK  116  A    between atoms: _272  and  _273
REMARK  117  A    between atoms: _276  and  _278
REMARK  118  A    between atoms: _278  and  _279
REMARK  119  A    between atoms: _278  and  _281
REMARK  120  A    between atoms: _281  and  _282
REMARK  121  A    between atoms: _282  and  _283
REMARK  122  A    between atoms: _285  and  _287
REMARK  123  A    between atoms: _287  and  _288
REMARK  124  A    between atoms: _287  and  _290
REMARK  125  A    between atoms: _290  and  _291
REMARK  126  A    between atoms: _291  and  _292
REMARK  127  A    between atoms: _295  and  _297
REMARK  128  A    between atoms: _297  and  _298
REMARK  129  A    between atoms: _301  and  _303
REMARK  130  A    between atoms: _303  and  _304
REMARK  131  A    between atoms: _303  and  _306
REMARK  132  A    between atoms: _306  and  _307
REMARK  133  A    between atoms: _310  and  _312
REMARK  134  A    between atoms: _312  and  _313
REMARK  135  A    between atoms: _312  and  _315
REMARK  136  A    between atoms: _315  and  _316
REMARK  137  A    between atoms: _319  and  _321
REMARK  138  A    between atoms: _321  and  _322
REMARK  139  A    between atoms: _321  and  _324
REMARK  140  A    between atoms: _324  and  _325
REMARK  141  A    between atoms: _325  and  _326
REMARK  142  A    between atoms: _326  and  _327
REMARK  143  A    between atoms: _336  and  _338
REMARK  144  A    between atoms: _338  and  _339
REMARK  145  A    between atoms: _342  and  _344
REMARK  146  A    between atoms: _344  and  _345
REMARK  147  A    between atoms: _344  and  _347
REMARK  148  A    between atoms: _347  and  _348
REMARK  149  A    between atoms: _351  and  _353
REMARK  150  A    between atoms: _353  and  _354
REMARK  151  A    between atoms: _353  and  _356
REMARK  152  A    between atoms: _356  and  _357
REMARK  153  A    between atoms: _359  and  _361
REMARK  154  A    between atoms: _361  and  _362
REMARK  155  A    between atoms: _361  and  _364
REMARK  156  A    between atoms: _364  and  _365
REMARK  157  A    between atoms: _368  and  _370
REMARK  158  A    between atoms: _370  and  _371
REMARK  159  A    between atoms: _370  and  _373
REMARK  160  A    between atoms: _376  and  _378
REMARK  161  A    between atoms: _378  and  _379
REMARK  162  A    between atoms: _382  and  _384
REMARK  163  A    between atoms: _384  and  _385
REMARK  164  A    between atoms: _384  and  _387
REMARK  165  A    between atoms: _387  and  _388
REMARK  166  A    between atoms: _391  and  _393
REMARK  167  A    between atoms: _393  and  _394
REMARK  168  A    between atoms: _393  and  _396
REMARK  169  A    between atoms: _396  and  _397
REMARK  170  A    between atoms: _399  and  _401
REMARK  171  A    between atoms: _401  and  _402
REMARK  172  A    between atoms: _401  and  _404
REMARK  173  A    between atoms: _404  and  _405
REMARK  174  A    between atoms: _410  and  _412
REMARK  175  A    between atoms: _412  and  _413
REMARK  176  A    between atoms: _412  and  _415
REMARK  177  A    between atoms: _415  and  _416
REMARK  178  A    between atoms: _418  and  _420
REMARK  179  A    between atoms: _420  and  _421
REMARK  180  A    between atoms: _420  and  _423
REMARK  181  A    between atoms: _423  and  _424
REMARK  182  A    between atoms: _430  and  _432
REMARK  183  A    between atoms: _432  and  _433
REMARK  184  A    between atoms: _432  and  _435
REMARK  185  A    between atoms: _435  and  _436
REMARK  186  A    between atoms: _439  and  _441
REMARK  187  A    between atoms: _441  and  _442
REMARK  188  A    between atoms: _441  and  _444
REMARK  189  A    between atoms: _444  and  _445
REMARK  190  A    between atoms: _448  and  _450
REMARK  191  A    between atoms: _450  and  _451
REMARK  192  A    between atoms: _454  and  _456
REMARK  193  A    between atoms: _456  and  _457
REMARK  194  A    between atoms: _456  and  _459
REMARK  195  A    between atoms: _459  and  _460
REMARK  196  A    between atoms: _463  and  _465
REMARK  197  A    between atoms: _465  and  _466
REMARK  198  A    between atoms: _465  and  _468
REMARK  199  A    between atoms: _471  and  _473
REMARK  200  A    between atoms: _473  and  _474
REMARK  201  A    between atoms: _477  and  _479
REMARK  202  A    between atoms: _479  and  _480
REMARK  203  A    between atoms: _479  and  _482
REMARK  204  A    between atoms: _482  and  _483
REMARK  205  A    between atoms: _489  and  _491
REMARK  206  A    between atoms: _491  and  _492
REMARK  207  A    between atoms: _491  and  _494
REMARK  208  A    between atoms: _494  and  _495
REMARK  209  A    between atoms: _500  and  _501
REMARK  210  A    between atoms: _503  and  _505
REMARK  211  A    between atoms: _505  and  _506
REMARK  212  A    between atoms: _505  and  _508
REMARK  213  A    between atoms: _508  and  _509
REMARK  214  A    between atoms: _513  and  _514
REMARK                            x       y       z     vdW  Elec       q    Type
REMARK                         _______ _______ _______ _____ _____    ______ ____
ROOT
ATOM      1  C   LEU A   1      54.919  68.248  31.239  0.00  0.00    +0.241 C 
ATOM      2  O   LEU A   1      55.182  67.581  32.240  0.00  0.00    -0.273 OA
ATOM      3  N   PRO A   2      55.397  67.923  30.032  0.00  0.00    -0.273 N 
ATOM      4  CA  PRO A   2      56.292  66.769  29.864  0.00  0.00    +0.140 C 
ATOM      5  CB  PRO A   2      56.732  66.880  28.404  0.00  0.00    +0.030 C 
ATOM      6  CG  PRO A   2      55.524  67.470  27.725  0.00  0.00    +0.024 C 
ATOM      7  CD  PRO A   2      55.045  68.525  28.729  0.00  0.00    +0.094 C 
ENDROOT
BRANCH   4   8
ATOM      8  C   PRO A   2      57.482  66.835  30.822  0.00  0.00    +0.227 C 
ATOM      9  O   PRO A   2      58.078  67.902  31.028  0.00  0.00    -0.286 OA
ENDBRANCH   4   8
BRANCH   1  10
ATOM     10  CA  LEU A   1      53.995  69.468  31.335  0.00  0.00    +0.145 C 
BRANCH  10  11
ATOM     11  N   LEU A   1      52.934  69.136  32.289  0.00  0.00    -0.238 NA
ATOM     12  H   LEU A   1      53.127  69.185  33.310  0.00  0.00    +0.142 HD
ENDBRANCH  10  11
BRANCH  10  13
ATOM     13  CB  LEU A   1      54.816  70.667  31.797  0.00  0.00    +0.026 C 
BRANCH  13  14
ATOM     14  CG  LEU A   1      54.187  72.036  31.544  0.00  0.00    +0.002 C 
ATOM     15  CD2 LEU A   1      53.069  72.219  32.511  0.00  0.00    +0.000 C 
ATOM     16  CD1 LEU A   1      53.669  72.137  30.099  0.00  0.00    +0.000 C 
ENDBRANCH  13  14
ENDBRANCH  10  13
ENDBRANCH   1  10
TORSDOF 5
REMARK  Name = ../refined-set-2016/1y6r/1y6r_pocket.pdb
REMARK  214 active torsions:
REMARK  status: ('A' for Active; 'I' for Inactive)
REMARK    1  A    between atoms: _1  and  _3
REMARK    2  A    between atoms: _3  and  _4
REMARK    3  A    between atoms: _6  and  _8
REMARK    4  A    between atoms: _8  and  _9
REMARK    5  A    between atoms: _12  and  _14
REMARK    6  A    between atoms: _14  and  _15
REMARK    7  A    between atoms: _14  and  _17
REMARK    8  A    between atoms: _17  and  _18
REMARK    9  A    between atoms: _18  and  _19
REMARK   10  A    between atoms: _21  and  _23
REMARK   11  A    between atoms: _23  and  _24
REMARK   12  A    between atoms: _23  and  _26
REMARK   13  A    between atoms: _26  and  _27
REMARK   14  A    between atoms: _27  and  _28
REMARK   15  A    between atoms: _31  and  _33
REMARK   16  A    between atoms: _33  and  _34
REMARK   17  A    between atoms: _33  and  _36
REMARK   18  A    between atoms: _36  and  _37
REMARK   19  A    between atoms: _39  and  _41
REMARK   20  A    between atoms: _41  and  _42
REMARK   21  A    between atoms: _44  and  _46
REMARK   22  A    between atoms: _46  and  _47
REMARK   23  A    between atoms: _46  and  _49
REMARK   24  A    between atoms: _49  and  _50
REMARK   25  A    between atoms: _53  and  _55
REMARK   26  A    between atoms: _55  and  _56
REMARK   27  A    between atoms: _58  and  _60
REMARK   28  A    between atoms: _60  and  _61
REMARK   29  A    between atoms: _60  and  _63
REMARK   30  A    between atoms: _63  and  _64
REMARK   31  A    between atoms: _64  and  _65
REMARK   32  A    between atoms: _65  and  _66
REMARK   33  A    between atoms: _66  and  _67
REMARK   34  A    between atoms: _71  and  _73
REMARK   35  A    between atoms: _73  and  _74
REMARK   36  A    between atoms: _77  and  _79
REMARK   37  A    between atoms: _79  and  _80
REMARK   38  A    between atoms: _83  and  _85
REMARK   39  A    between atoms: _85  and  _86
REMARK   40  A    between atoms: _85  and  _88
REMARK   41  A    between atoms: _88  and  _89
REMARK   42  A    between atoms: _94  and  _96
REMARK   43  A    between atoms: _96  and  _97
REMARK   44  A    between atoms: _96  and  _99
REMARK   45  A    between atoms: _99  and  _100
REMARK   46  A    between atoms: _103  and  _105
REMARK   47  A    between atoms: _105  and  _106
REMARK   48  A    between atoms: _108  and  _110
REMARK   49  A    between atoms: _110  and  _111
REMARK   50  A    between atoms: _110  and  _113
REMARK   51  A    between atoms: _113  and  _114
REMARK   52  A    between atoms: _116  and  _118
REMARK   53  A    between atoms: _118  and  _119
REMARK   54  A    between atoms: _122  and  _124
REMARK   55  A    between atoms: _124  and  _125
REMARK   56  A    between atoms: _127  and  _129
REMARK   57  A    between atoms: _129  and  _130
REMARK   58  A    between atoms: _132  and  _134
REMARK   59  A    between atoms: _134  and  _135
REMARK   60  A    between atoms: _134  and  _137
REMARK   61  A    between atoms: _137  and  _138
REMARK   62  A    between atoms: _141  and  _143
REMARK   63  A    between atoms: _143  and  _144
REMARK   64  A    between atoms: _143  and  _146
REMARK   65  A    between atoms: _146  and  _147
REMARK   66  A    between atoms: _152  and  _154
REMARK   67  A    between atoms: _154  and  _155
REMARK   68  A    between atoms: _154  and  _157
REMARK   69  A    between atoms: _157  and  _158
REMARK   70  A    between atoms: _161  and  _163
REMARK   71  A    between atoms: _163  and  _164
REMARK   72  A    between atoms: _163  and  _166
REMARK   73  A    between atoms: _169  and  _171
REMARK   74  A    between atoms: _171  and  _172
REMARK   75  A    between atoms: _171  and  _174
REMARK   76  A    between atoms: _174  and  _175
REMARK   77  A    between atoms: _177  and  _179
REMARK   78  A    between atoms: _179  and  _180
REMARK   79  A    between atoms: _182  and  _184
REMARK   80  A    between atoms: _184  and  _185
REMARK   81  A    between atoms: _184  and  _187
REMARK   82  A    between atoms: _187  and  _188
REMARK   83  A    between atoms: _191  and  _193
REMARK   84  A    between atoms: _193  and  _194
REMARK   85  A    between atoms: _197  and  _199
REMARK   86  A    between atoms: _199  and  _200
REMARK   87  A    between atoms: _199  and  _202
REMARK   88  A    between atoms: _202  and  _203
REMARK   89  A    between atoms: _209  and  _211
REMARK   90  A    between atoms: _211  and  _212
REMARK   91  A    between atoms: _211  and  _214
REMARK   92  A    between atoms: _214  and  _215
REMARK   93  A    between atoms: _218  and  _220
REMARK   94  A    between atoms: _220  and  _221
REMARK   95  A    between atoms: _220  and  _223
REMARK   96  A    between atoms: _223  and  _224
REMARK   97  A    between atoms: _229  and  _231
REMARK   98  A    between atoms: _231  and  _232
REMARK   99  A    between atoms: _234  and  _236
REMARK  100  A    between atoms: _236  and  _237
REMARK  101  A    between atoms: _236  and  _239
REMARK  102  A    between atoms: _239  and  _240
REMARK  103  A    between atoms: _243  and  _245
REMARK  104  A    between atoms: _245  and  _246
REMARK  105  A    between atoms: _245  and  _248
REMARK  106  A    between atoms: _248  and  _249
REMARK  107  A    between atoms: _252  and  _254
REMARK  108  A    between atoms: _254  and  _255
REMARK  109  A    between atoms: _258  and  _260
REMARK  110  A    between atoms: _260  and  _261
REMARK  111  A    between atoms: _260  and  _263
REMARK  112  A    between atoms: _266  and  _268
REMARK  113  A    between atoms: _268  and  _269
REMARK  114  A    between atoms: _268  and  _271
REMARK  115  A    between atoms: _271  and  _272
REMARK  116  A    between atoms: _272  and  _273
REMARK  117  A    between atoms: _276  and  _278
REMARK  118  A    between atoms: _278  and  _279
REMARK  119  A    between atoms: _278  and  _281
REMARK  120  A    between atoms: _281  and  _282
REMARK  121  A    between atoms: _282  and  _283
REMARK  122  A    between atoms: _285  and  _287
REMARK  123  A    between atoms: _287  and  _288
REMARK  124  A    between atoms: _287  and  _290
REMARK  125  A    between atoms: _290  and  _291
REMARK  126  A    between atoms: _291  and  _292
REMARK  127  A    between atoms: _295  and  _297
REMARK  128  A    between atoms: _297  and  _298
REMARK  129  A    between atoms: _301  and  _303
REMARK  130  A    between atoms: _303  and  _304
REMARK  131  A    between atoms: _303  and  _306
REMARK  132  A    between atoms: _306  and  _307
REMARK  133  A    between atoms: _310  and  _312
REMARK  134  A    between atoms: _312  and  _313
REMARK  135  A    between atoms: _312  and  _315
REMARK  136  A    between atoms: _315  and  _316
REMARK  137  A    between atoms: _319  and  _321
REMARK  138  A    between atoms: _321  and  _322
REMARK  139  A    between atoms: _321  and  _324
REMARK  140  A    between atoms: _324  and  _325
REMARK  141  A    between atoms: _325  and  _326
REMARK  142  A    between atoms: _326  and  _327
REMARK  143  A    between atoms: _336  and  _338
REMARK  144  A    between atoms: _338  and  _339
REMARK  145  A    between atoms: _342  and  _344
REMARK  146  A    between atoms: _344  and  _345
REMARK  147  A    between atoms: _344  and  _347
REMARK  148  A    between atoms: _347  and  _348
REMARK  149  A    between atoms: _351  and  _353
REMARK  150  A    between atoms: _353  and  _354
REMARK  151  A    between atoms: _353  and  _356
REMARK  152  A    between atoms: _356  and  _357
REMARK  153  A    between atoms: _359  and  _361
REMARK  154  A    between atoms: _361  and  _362
REMARK  155  A    between atoms: _361  and  _364
REMARK  156  A    between atoms: _364  and  _365
REMARK  157  A    between atoms: _368  and  _370
REMARK  158  A    between atoms: _370  and  _371
REMARK  159  A    between atoms: _370  and  _373
REMARK  160  A    between atoms: _376  and  _378
REMARK  161  A    between atoms: _378  and  _379
REMARK  162  A    between atoms: _382  and  _384
REMARK  163  A    between atoms: _384  and  _385
REMARK  164  A    between atoms: _384  and  _387
REMARK  165  A    between atoms: _387  and  _388
REMARK  166  A    between atoms: _391  and  _393
REMARK  167  A    between atoms: _393  and  _394
REMARK  168  A    between atoms: _393  and  _396
REMARK  169  A    between atoms: _396  and  _397
REMARK  170  A    between atoms: _399  and  _401
REMARK  171  A    between atoms: _401  and  _402
REMARK  172  A    between atoms: _401  and  _404
REMARK  173  A    between atoms: _404  and  _405
REMARK  174  A    between atoms: _410  and  _412
REMARK  175  A    between atoms: _412  and  _413
REMARK  176  A    between atoms: _412  and  _415
REMARK  177  A    between atoms: _415  and  _416
REMARK  178  A    between atoms: _418  and  _420
REMARK  179  A    between atoms: _420  and  _421
REMARK  180  A    between atoms: _420  and  _423
REMARK  181  A    between atoms: _423  and  _424
REMARK  182  A    between atoms: _430  and  _432
REMARK  183  A    between atoms: _432  and  _433
REMARK  184  A    between atoms: _432  and  _435
REMARK  185  A    between atoms: _435  and  _436
REMARK  186  A    between atoms: _439  and  _441
REMARK  187  A    between atoms: _441  and  _442
REMARK  188  A    between atoms: _441  and  _444
REMARK  189  A    between atoms: _444  and  _445
REMARK  190  A    between atoms: _448  and  _450
REMARK  191  A    between atoms: _450  and  _451
REMARK  192  A    between atoms: _454  and  _456
REMARK  193  A    between atoms: _456  and  _457
REMARK  194  A    between atoms: _456  and  _459
REMARK  195  A    between atoms: _459  and  _460
REMARK  196  A    between atoms: _463  and  _465
REMARK  197  A    between atoms: _465  and  _466
REMARK  198  A    between atoms: _465  and  _468
REMARK  199  A    between atoms: _471  and  _473
REMARK  200  A    between atoms: _473  and  _474
REMARK  201  A    between atoms: _477  and  _479
REMARK  202  A    between atoms: _479  and  _480
REMARK  203  A    between atoms: _479  and  _482
REMARK  204  A    between atoms: _482  and  _483
REMARK  205  A    between atoms: _489  and  _491
REMARK  206  A    between atoms: _491  and  _492
REMARK  207  A    between atoms: _491  and  _494
REMARK  208  A    between atoms: _494  and  _495
REMARK  209  A    between atoms: _500  and  _501
REMARK  210  A    between atoms: _503  and  _505
REMARK  211  A    between atoms: _505  and  _506
REMARK  212  A    between atoms: _505  and  _508
REMARK  213  A    between atoms: _508  and  _509
REMARK  214  A    between atoms: _513  and  _514
REMARK                            x       y       z     vdW  Elec       q    Type
REMARK                         _______ _______ _______ _____ _____    ______ ____
ROOT
ATOM      1  O   HOH     1      61.097  73.547  21.770  0.00  0.00    +0.000 OA
ENDROOT
TORSDOF 0
REMARK  Name = ../refined-set-2016/1y6r/1y6r_pocket.pdb
REMARK  214 active torsions:
REMARK  status: ('A' for Active; 'I' for Inactive)
REMARK    1  A    between atoms: _1  and  _3
REMARK    2  A    between atoms: _3  and  _4
REMARK    3  A    between atoms: _6  and  _8
REMARK    4  A    between atoms: _8  and  _9
REMARK    5  A    between atoms: _12  and  _14
REMARK    6  A    between atoms: _14  and  _15
REMARK    7  A    between atoms: _14  and  _17
REMARK    8  A    between atoms: _17  and  _18
REMARK    9  A    between atoms: _18  and  _19
REMARK   10  A    between atoms: _21  and  _23
REMARK   11  A    between atoms: _23  and  _24
REMARK   12  A    between atoms: _23  and  _26
REMARK   13  A    between atoms: _26  and  _27
REMARK   14  A    between atoms: _27  and  _28
REMARK   15  A    between atoms: _31  and  _33
REMARK   16  A    between atoms: _33  and  _34
REMARK   17  A    between atoms: _33  and  _36
REMARK   18  A    between atoms: _36  and  _37
REMARK   19  A    between atoms: _39  and  _41
REMARK   20  A    between atoms: _41  and  _42
REMARK   21  A    between atoms: _44  and  _46
REMARK   22  A    between atoms: _46  and  _47
REMARK   23  A    between atoms: _46  and  _49
REMARK   24  A    between atoms: _49  and  _50
REMARK   25  A    between atoms: _53  and  _55
REMARK   26  A    between atoms: _55  and  _56
REMARK   27  A    between atoms: _58  and  _60
REMARK   28  A    between atoms: _60  and  _61
REMARK   29  A    between atoms: _60  and  _63
REMARK   30  A    between atoms: _63  and  _64
REMARK   31  A    between atoms: _64  and  _65
REMARK   32  A    between atoms: _65  and  _66
REMARK   33  A    between atoms: _66  and  _67
REMARK   34  A    between atoms: _71  and  _73
REMARK   35  A    between atoms: _73  and  _74
REMARK   36  A    between atoms: _77  and  _79
REMARK   37  A    between atoms: _79  and  _80
REMARK   38  A    between atoms: _83  and  _85
REMARK   39  A    between atoms: _85  and  _86
REMARK   40  A    between atoms: _85  and  _88
REMARK   41  A    between atoms: _88  and  _89
REMARK   42  A    between atoms: _94  and  _96
REMARK   43  A    between atoms: _96  and  _97
REMARK   44  A    between atoms: _96  and  _99
REMARK   45  A    between atoms: _99  and  _100
REMARK   46  A    between atoms: _103  and  _105
REMARK   47  A    between atoms: _105  and  _106
REMARK   48  A    between atoms: _108  and  _110
REMARK   49  A    between atoms: _110  and  _111
REMARK   50  A    between atoms: _110  and  _113
REMARK   51  A    between atoms: _113  and  _114
REMARK   52  A    between atoms: _116  and  _118
REMARK   53  A    between atoms: _118  and  _119
REMARK   54  A    between atoms: _122  and  _124
REMARK   55  A    between atoms: _124  and  _125
REMARK   56  A    between atoms: _127  and  _129
REMARK   57  A    between atoms: _129  and  _130
REMARK   58  A    between atoms: _132  and  _134
REMARK   59  A    between atoms: _134  and  _135
REMARK   60  A    between atoms: _134  and  _137
REMARK   61  A    between atoms: _137  and  _138
REMARK   62  A    between atoms: _141  and  _143
REMARK   63  A    between atoms: _143  and  _144
REMARK   64  A    between atoms: _143  and  _146
REMARK   65  A    between atoms: _146  and  _147
REMARK   66  A    between atoms: _152  and  _154
REMARK   67  A    between atoms: _154  and  _155
REMARK   68  A    between atoms: _154  and  _157
REMARK   69  A    between atoms: _157  and  _158
REMARK   70  A    between atoms: _161  and  _163
REMARK   71  A    between atoms: _163  and  _164
REMARK   72  A    between atoms: _163  and  _166
REMARK   73  A    between atoms: _169  and  _171
REMARK   74  A    between atoms: _171  and  _172
REMARK   75  A    between atoms: _171  and  _174
REMARK   76  A    between atoms: _174  and  _175
REMARK   77  A    between atoms: _177  and  _179
REMARK   78  A    between atoms: _179  and  _180
REMARK   79  A    between atoms: _182  and  _184
REMARK   80  A    between atoms: _184  and  _185
REMARK   81  A    between atoms: _184  and  _187
REMARK   82  A    between atoms: _187  and  _188
REMARK   83  A    between atoms: _191  and  _193
REMARK   84  A    between atoms: _193  and  _194
REMARK   85  A    between atoms: _197  and  _199
REMARK   86  A    between atoms: _199  and  _200
REMARK   87  A    between atoms: _199  and  _202
REMARK   88  A    between atoms: _202  and  _203
REMARK   89  A    between atoms: _209  and  _211
REMARK   90  A    between atoms: _211  and  _212
REMARK   91  A    between atoms: _211  and  _214
REMARK   92  A    between atoms: _214  and  _215
REMARK   93  A    between atoms: _218  and  _220
REMARK   94  A    between atoms: _220  and  _221
REMARK   95  A    between atoms: _220  and  _223
REMARK   96  A    between atoms: _223  and  _224
REMARK   97  A    between atoms: _229  and  _231
REMARK   98  A    between atoms: _231  and  _232
REMARK   99  A    between atoms: _234  and  _236
REMARK  100  A    between atoms: _236  and  _237
REMARK  101  A    between atoms: _236  and  _239
REMARK  102  A    between atoms: _239  and  _240
REMARK  103  A    between atoms: _243  and  _245
REMARK  104  A    between atoms: _245  and  _246
REMARK  105  A    between atoms: _245  and  _248
REMARK  106  A    between atoms: _248  and  _249
REMARK  107  A    between atoms: _252  and  _254
REMARK  108  A    between atoms: _254  and  _255
REMARK  109  A    between atoms: _258  and  _260
REMARK  110  A    between atoms: _260  and  _261
REMARK  111  A    between atoms: _260  and  _263
REMARK  112  A    between atoms: _266  and  _268
REMARK  113  A    between atoms: _268  and  _269
REMARK  114  A    between atoms: _268  and  _271
REMARK  115  A    between atoms: _271  and  _272
REMARK  116  A    between atoms: _272  and  _273
REMARK  117  A    between atoms: _276  and  _278
REMARK  118  A    between atoms: _278  and  _279
REMARK  119  A    between atoms: _278  and  _281
REMARK  120  A    between atoms: _281  and  _282
REMARK  121  A    between atoms: _282  and  _283
REMARK  122  A    between atoms: _285  and  _287
REMARK  123  A    between atoms: _287  and  _288
REMARK  124  A    between atoms: _287  and  _290
REMARK  125  A    between atoms: _290  and  _291
REMARK  126  A    between atoms: _291  and  _292
REMARK  127  A    between atoms: _295  and  _297
REMARK  128  A    between atoms: _297  and  _298
REMARK  129  A    between atoms: _301  and  _303
REMARK  130  A    between atoms: _303  and  _304
REMARK  131  A    between atoms: _303  and  _306
REMARK  132  A    between atoms: _306  and  _307
REMARK  133  A    between atoms: _310  and  _312
REMARK  134  A    between atoms: _312  and  _313
REMARK  135  A    between atoms: _312  and  _315
REMARK  136  A    between atoms: _315  and  _316
REMARK  137  A    between atoms: _319  and  _321
REMARK  138  A    between atoms: _321  and  _322
REMARK  139  A    between atoms: _321  and  _324
REMARK  140  A    between atoms: _324  and  _325
REMARK  141  A    between atoms: _325  and  _326
REMARK  142  A    between atoms: _326  and  _327
REMARK  143  A    between atoms: _336  and  _338
REMARK  144  A    between atoms: _338  and  _339
REMARK  145  A    between atoms: _342  and  _344
REMARK  146  A    between atoms: _344  and  _345
REMARK  147  A    between atoms: _344  and  _347
REMARK  148  A    between atoms: _347  and  _348
REMARK  149  A    between atoms: _351  and  _353
REMARK  150  A    between atoms: _353  and  _354
REMARK  151  A    between atoms: _353  and  _356
REMARK  152  A    between atoms: _356  and  _357
REMARK  153  A    between atoms: _359  and  _361
REMARK  154  A    between atoms: _361  and  _362
REMARK  155  A    between atoms: _361  and  _364
REMARK  156  A    between atoms: _364  and  _365
REMARK  157  A    between atoms: _368  and  _370
REMARK  158  A    between atoms: _370  and  _371
REMARK  159  A    between atoms: _370  and  _373
REMARK  160  A    between atoms: _376  and  _378
REMARK  161  A    between atoms: _378  and  _379
REMARK  162  A    between atoms: _382  and  _384
REMARK  163  A    between atoms: _384  and  _385
REMARK  164  A    between atoms: _384  and  _387
REMARK  165  A    between atoms: _387  and  _388
REMARK  166  A    between atoms: _391  and  _393
REMARK  167  A    between atoms: _393  and  _394
REMARK  168  A    between atoms: _393  and  _396
REMARK  169  A    between atoms: _396  and  _397
REMARK  170  A    between atoms: _399  and  _401
REMARK  171  A    between atoms: _401  and  _402
REMARK  172  A    between atoms: _401  and  _404
REMARK  173  A    between atoms: _404  and  _405
REMARK  174  A    between atoms: _410  and  _412
REMARK  175  A    between atoms: _412  and  _413
REMARK  176  A    between atoms: _412  and  _415
REMARK  177  A    between atoms: _415  and  _416
REMARK  178  A    between atoms: _418  and  _420
REMARK  179  A    between atoms: _420  and  _421
REMARK  180  A    between atoms: _420  and  _423
REMARK  181  A    between atoms: _423  and  _424
REMARK  182  A    between atoms: _430  and  _432
REMARK  183  A    between atoms: _432  and  _433
REMARK  184  A    between atoms: _432  and  _435
REMARK  185  A    between atoms: _435  and  _436
REMARK  186  A    between atoms: _439  and  _441
REMARK  187  A    between atoms: _441  and  _442
REMARK  188  A    between atoms: _441  and  _444
REMARK  189  A    between atoms: _444  and  _445
REMARK  190  A    between atoms: _448  and  _450
REMARK  191  A    between atoms: _450  and  _451
REMARK  192  A    between atoms: _454  and  _456
REMARK  193  A    between atoms: _456  and  _457
REMARK  194  A    between atoms: _456  and  _459
REMARK  195  A    between atoms: _459  and  _460
REMARK  196  A    between atoms: _463  and  _465
REMARK  197  A    between atoms: _465  and  _466
REMARK  198  A    between atoms: _465  and  _468
REMARK  199  A    between atoms: _471  and  _473
REMARK  200  A    between atoms: _473  and  _474
REMARK  201  A    between atoms: _477  and  _479
REMARK  202  A    between atoms: _479  and  _480
REMARK  203  A    between atoms: _479  and  _482
REMARK  204  A    between atoms: _482  and  _483
REMARK  205  A    between atoms: _489  and  _491
REMARK  206  A    between atoms: _491  and  _492
REMARK  207  A    between atoms: _491  and  _494
REMARK  208  A    between atoms: _494  and  _495
REMARK  209  A    between atoms: _500  and  _501
REMARK  210  A    between atoms: _503  and  _505
REMARK  211  A    between atoms: _505  and  _506
REMARK  212  A    between atoms: _505  and  _508
REMARK  213  A    between atoms: _508  and  _509
REMARK  214  A    between atoms: _513  and  _514
REMARK                            x       y       z     vdW  Elec       q    Type
REMARK                         _______ _______ _______ _____ _____    ______ ____
ROOT
ATOM      1  O   HOH     1      52.388  77.978  23.427  0.00  0.00    +0.000 OA
ENDROOT
TORSDOF 0
REMARK  Name = ../refined-set-2016/1y6r/1y6r_pocket.pdb
REMARK  214 active torsions:
REMARK  status: ('A' for Active; 'I' for Inactive)
REMARK    1  A    between atoms: _1  and  _3
REMARK    2  A    between atoms: _3  and  _4
REMARK    3  A    between atoms: _6  and  _8
REMARK    4  A    between atoms: _8  and  _9
REMARK    5  A    between atoms: _12  and  _14
REMARK    6  A    between atoms: _14  and  _15
REMARK    7  A    between atoms: _14  and  _17
REMARK    8  A    between atoms: _17  and  _18
REMARK    9  A    between atoms: _18  and  _19
REMARK   10  A    between atoms: _21  and  _23
REMARK   11  A    between atoms: _23  and  _24
REMARK   12  A    between atoms: _23  and  _26
REMARK   13  A    between atoms: _26  and  _27
REMARK   14  A    between atoms: _27  and  _28
REMARK   15  A    between atoms: _31  and  _33
REMARK   16  A    between atoms: _33  and  _34
REMARK   17  A    between atoms: _33  and  _36
REMARK   18  A    between atoms: _36  and  _37
REMARK   19  A    between atoms: _39  and  _41
REMARK   20  A    between atoms: _41  and  _42
REMARK   21  A    between atoms: _44  and  _46
REMARK   22  A    between atoms: _46  and  _47
REMARK   23  A    between atoms: _46  and  _49
REMARK   24  A    between atoms: _49  and  _50
REMARK   25  A    between atoms: _53  and  _55
REMARK   26  A    between atoms: _55  and  _56
REMARK   27  A    between atoms: _58  and  _60
REMARK   28  A    between atoms: _60  and  _61
REMARK   29  A    between atoms: _60  and  _63
REMARK   30  A    between atoms: _63  and  _64
REMARK   31  A    between atoms: _64  and  _65
REMARK   32  A    between atoms: _65  and  _66
REMARK   33  A    between atoms: _66  and  _67
REMARK   34  A    between atoms: _71  and  _73
REMARK   35  A    between atoms: _73  and  _74
REMARK   36  A    between atoms: _77  and  _79
REMARK   37  A    between atoms: _79  and  _80
REMARK   38  A    between atoms: _83  and  _85
REMARK   39  A    between atoms: _85  and  _86
REMARK   40  A    between atoms: _85  and  _88
REMARK   41  A    between atoms: _88  and  _89
REMARK   42  A    between atoms: _94  and  _96
REMARK   43  A    between atoms: _96  and  _97
REMARK   44  A    between atoms: _96  and  _99
REMARK   45  A    between atoms: _99  and  _100
REMARK   46  A    between atoms: _103  and  _105
REMARK   47  A    between atoms: _105  and  _106
REMARK   48  A    between atoms: _108  and  _110
REMARK   49  A    between atoms: _110  and  _111
REMARK   50  A    between atoms: _110  and  _113
REMARK   51  A    between atoms: _113  and  _114
REMARK   52  A    between atoms: _116  and  _118
REMARK   53  A    between atoms: _118  and  _119
REMARK   54  A    between atoms: _122  and  _124
REMARK   55  A    between atoms: _124  and  _125
REMARK   56  A    between atoms: _127  and  _129
REMARK   57  A    between atoms: _129  and  _130
REMARK   58  A    between atoms: _132  and  _134
REMARK   59  A    between atoms: _134  and  _135
REMARK   60  A    between atoms: _134  and  _137
REMARK   61  A    between atoms: _137  and  _138
REMARK   62  A    between atoms: _141  and  _143
REMARK   63  A    between atoms: _143  and  _144
REMARK   64  A    between atoms: _143  and  _146
REMARK   65  A    between atoms: _146  and  _147
REMARK   66  A    between atoms: _152  and  _154
REMARK   67  A    between atoms: _154  and  _155
REMARK   68  A    between atoms: _154  and  _157
REMARK   69  A    between atoms: _157  and  _158
REMARK   70  A    between atoms: _161  and  _163
REMARK   71  A    between atoms: _163  and  _164
REMARK   72  A    between atoms: _163  and  _166
REMARK   73  A    between atoms: _169  and  _171
REMARK   74  A    between atoms: _171  and  _172
REMARK   75  A    between atoms: _171  and  _174
REMARK   76  A    between atoms: _174  and  _175
REMARK   77  A    between atoms: _177  and  _179
REMARK   78  A    between atoms: _179  and  _180
REMARK   79  A    between atoms: _182  and  _184
REMARK   80  A    between atoms: _184  and  _185
REMARK   81  A    between atoms: _184  and  _187
REMARK   82  A    between atoms: _187  and  _188
REMARK   83  A    between atoms: _191  and  _193
REMARK   84  A    between atoms: _193  and  _194
REMARK   85  A    between atoms: _197  and  _199
REMARK   86  A    between atoms: _199  and  _200
REMARK   87  A    between atoms: _199  and  _202
REMARK   88  A    between atoms: _202  and  _203
REMARK   89  A    between atoms: _209  and  _211
REMARK   90  A    between atoms: _211  and  _212
REMARK   91  A    between atoms: _211  and  _214
REMARK   92  A    between atoms: _214  and  _215
REMARK   93  A    between atoms: _218  and  _220
REMARK   94  A    between atoms: _220  and  _221
REMARK   95  A    between atoms: _220  and  _223
REMARK   96  A    between atoms: _223  and  _224
REMARK   97  A    between atoms: _229  and  _231
REMARK   98  A    between atoms: _231  and  _232
REMARK   99  A    between atoms: _234  and  _236
REMARK  100  A    between atoms: _236  and  _237
REMARK  101  A    between atoms: _236  and  _239
REMARK  102  A    between atoms: _239  and  _240
REMARK  103  A    between atoms: _243  and  _245
REMARK  104  A    between atoms: _245  and  _246
REMARK  105  A    between atoms: _245  and  _248
REMARK  106  A    between atoms: _248  and  _249
REMARK  107  A    between atoms: _252  and  _254
REMARK  108  A    between atoms: _254  and  _255
REMARK  109  A    between atoms: _258  and  _260
REMARK  110  A    between atoms: _260  and  _261
REMARK  111  A    between atoms: _260  and  _263
REMARK  112  A    between atoms: _266  and  _268
REMARK  113  A    between atoms: _268  and  _269
REMARK  114  A    between atoms: _268  and  _271
REMARK  115  A    between atoms: _271  and  _272
REMARK  116  A    between atoms: _272  and  _273
REMARK  117  A    between atoms: _276  and  _278
REMARK  118  A    between atoms: _278  and  _279
REMARK  119  A    between atoms: _278  and  _281
REMARK  120  A    between atoms: _281  and  _282
REMARK  121  A    between atoms: _282  and  _283
REMARK  122  A    between atoms: _285  and  _287
REMARK  123  A    between atoms: _287  and  _288
REMARK  124  A    between atoms: _287  and  _290
REMARK  125  A    between atoms: _290  and  _291
REMARK  126  A    between atoms: _291  and  _292
REMARK  127  A    between atoms: _295  and  _297
REMARK  128  A    between atoms: _297  and  _298
REMARK  129  A    between atoms: _301  and  _303
REMARK  130  A    between atoms: _303  and  _304
REMARK  131  A    between atoms: _303  and  _306
REMARK  132  A    between atoms: _306  and  _307
REMARK  133  A    between atoms: _310  and  _312
REMARK  134  A    between atoms: _312  and  _313
REMARK  135  A    between atoms: _312  and  _315
REMARK  136  A    between atoms: _315  and  _316
REMARK  137  A    between atoms: _319  and  _321
REMARK  138  A    between atoms: _321  and  _322
REMARK  139  A    between atoms: _321  and  _324
REMARK  140  A    between atoms: _324  and  _325
REMARK  141  A    between atoms: _325  and  _326
REMARK  142  A    between atoms: _326  and  _327
REMARK  143  A    between atoms: _336  and  _338
REMARK  144  A    between atoms: _338  and  _339
REMARK  145  A    between atoms: _342  and  _344
REMARK  146  A    between atoms: _344  and  _345
REMARK  147  A    between atoms: _344  and  _347
REMARK  148  A    between atoms: _347  and  _348
REMARK  149  A    between atoms: _351  and  _353
REMARK  150  A    between atoms: _353  and  _354
REMARK  151  A    between atoms: _353  and  _356
REMARK  152  A    between atoms: _356  and  _357
REMARK  153  A    between atoms: _359  and  _361
REMARK  154  A    between atoms: _361  and  _362
REMARK  155  A    between atoms: _361  and  _364
REMARK  156  A    between atoms: _364  and  _365
REMARK  157  A    between atoms: _368  and  _370
REMARK  158  A    between atoms: _370  and  _371
REMARK  159  A    between atoms: _370  and  _373
REMARK  160  A    between atoms: _376  and  _378
REMARK  161  A    between atoms: _378  and  _379
REMARK  162  A    between atoms: _382  and  _384
REMARK  163  A    between atoms: _384  and  _385
REMARK  164  A    between atoms: _384  and  _387
REMARK  165  A    between atoms: _387  and  _388
REMARK  166  A    between atoms: _391  and  _393
REMARK  167  A    between atoms: _393  and  _394
REMARK  168  A    between atoms: _393  and  _396
REMARK  169  A    between atoms: _396  and  _397
REMARK  170  A    between atoms: _399  and  _401
REMARK  171  A    between atoms: _401  and  _402
REMARK  172  A    between atoms: _401  and  _404
REMARK  173  A    between atoms: _404  and  _405
REMARK  174  A    between atoms: _410  and  _412
REMARK  175  A    between atoms: _412  and  _413
REMARK  176  A    between atoms: _412  and  _415
REMARK  177  A    between atoms: _415  and  _416
REMARK  178  A    between atoms: _418  and  _420
REMARK  179  A    between atoms: _420  and  _421
REMARK  180  A    between atoms: _420  and  _423
REMARK  181  A    between atoms: _423  and  _424
REMARK  182  A    between atoms: _430  and  _432
REMARK  183  A    between atoms: _432  and  _433
REMARK  184  A    between atoms: _432  and  _435
REMARK  185  A    between atoms: _435  and  _436
REMARK  186  A    between atoms: _439  and  _441
REMARK  187  A    between atoms: _441  and  _442
REMARK  188  A    between atoms: _441  and  _444
REMARK  189  A    between atoms: _444  and  _445
REMARK  190  A    between atoms: _448  and  _450
REMARK  191  A    between atoms: _450  and  _451
REMARK  192  A    between atoms: _454  and  _456
REMARK  193  A    between atoms: _456  and  _457
REMARK  194  A    between atoms: _456  and  _459
REMARK  195  A    between atoms: _459  and  _460
REMARK  196  A    between atoms: _463  and  _465
REMARK  197  A    between atoms: _465  and  _466
REMARK  198  A    between atoms: _465  and  _468
REMARK  199  A    between atoms: _471  and  _473
REMARK  200  A    between atoms: _473  and  _474
REMARK  201  A    between atoms: _477  and  _479
REMARK  202  A    between atoms: _479  and  _480
REMARK  203  A    between atoms: _479  and  _482
REMARK  204  A    between atoms: _482  and  _483
REMARK  205  A    between atoms: _489  and  _491
REMARK  206  A    between atoms: _491  and  _492
REMARK  207  A    between atoms: _491  and  _494
REMARK  208  A    between atoms: _494  and  _495
REMARK  209  A    between atoms: _500  and  _501
REMARK  210  A    between atoms: _503  and  _505
REMARK  211  A    between atoms: _505  and  _506
REMARK  212  A    between atoms: _505  and  _508
REMARK  213  A    between atoms: _508  and  _509
REMARK  214  A    between atoms: _513  and  _514
REMARK                            x       y       z     vdW  Elec       q    Type
REMARK                         _______ _______ _______ _____ _____    ______ ____
ROOT
ATOM      1  O   HOH     1      63.720  74.607  22.452  0.00  0.00    +0.000 OA
ENDROOT
TORSDOF 0
REMARK  Name = ../refined-set-2016/1y6r/1y6r_pocket.pdb
REMARK  214 active torsions:
REMARK  status: ('A' for Active; 'I' for Inactive)
REMARK    1  A    between atoms: _1  and  _3
REMARK    2  A    between atoms: _3  and  _4
REMARK    3  A    between atoms: _6  and  _8
REMARK    4  A    between atoms: _8  and  _9
REMARK    5  A    between atoms: _12  and  _14
REMARK    6  A    between atoms: _14  and  _15
REMARK    7  A    between atoms: _14  and  _17
REMARK    8  A    between atoms: _17  and  _18
REMARK    9  A    between atoms: _18  and  _19
REMARK   10  A    between atoms: _21  and  _23
REMARK   11  A    between atoms: _23  and  _24
REMARK   12  A    between atoms: _23  and  _26
REMARK   13  A    between atoms: _26  and  _27
REMARK   14  A    between atoms: _27  and  _28
REMARK   15  A    between atoms: _31  and  _33
REMARK   16  A    between atoms: _33  and  _34
REMARK   17  A    between atoms: _33  and  _36
REMARK   18  A    between atoms: _36  and  _37
REMARK   19  A    between atoms: _39  and  _41
REMARK   20  A    between atoms: _41  and  _42
REMARK   21  A    between atoms: _44  and  _46
REMARK   22  A    between atoms: _46  and  _47
REMARK   23  A    between atoms: _46  and  _49
REMARK   24  A    between atoms: _49  and  _50
REMARK   25  A    between atoms: _53  and  _55
REMARK   26  A    between atoms: _55  and  _56
REMARK   27  A    between atoms: _58  and  _60
REMARK   28  A    between atoms: _60  and  _61
REMARK   29  A    between atoms: _60  and  _63
REMARK   30  A    between atoms: _63  and  _64
REMARK   31  A    between atoms: _64  and  _65
REMARK   32  A    between atoms: _65  and  _66
REMARK   33  A    between atoms: _66  and  _67
REMARK   34  A    between atoms: _71  and  _73
REMARK   35  A    between atoms: _73  and  _74
REMARK   36  A    between atoms: _77  and  _79
REMARK   37  A    between atoms: _79  and  _80
REMARK   38  A    between atoms: _83  and  _85
REMARK   39  A    between atoms: _85  and  _86
REMARK   40  A    between atoms: _85  and  _88
REMARK   41  A    between atoms: _88  and  _89
REMARK   42  A    between atoms: _94  and  _96
REMARK   43  A    between atoms: _96  and  _97
REMARK   44  A    between atoms: _96  and  _99
REMARK   45  A    between atoms: _99  and  _100
REMARK   46  A    between atoms: _103  and  _105
REMARK   47  A    between atoms: _105  and  _106
REMARK   48  A    between atoms: _108  and  _110
REMARK   49  A    between atoms: _110  and  _111
REMARK   50  A    between atoms: _110  and  _113
REMARK   51  A    between atoms: _113  and  _114
REMARK   52  A    between atoms: _116  and  _118
REMARK   53  A    between atoms: _118  and  _119
REMARK   54  A    between atoms: _122  and  _124
REMARK   55  A    between atoms: _124  and  _125
REMARK   56  A    between atoms: _127  and  _129
REMARK   57  A    between atoms: _129  and  _130
REMARK   58  A    between atoms: _132  and  _134
REMARK   59  A    between atoms: _134  and  _135
REMARK   60  A    between atoms: _134  and  _137
REMARK   61  A    between atoms: _137  and  _138
REMARK   62  A    between atoms: _141  and  _143
REMARK   63  A    between atoms: _143  and  _144
REMARK   64  A    between atoms: _143  and  _146
REMARK   65  A    between atoms: _146  and  _147
REMARK   66  A    between atoms: _152  and  _154
REMARK   67  A    between atoms: _154  and  _155
REMARK   68  A    between atoms: _154  and  _157
REMARK   69  A    between atoms: _157  and  _158
REMARK   70  A    between atoms: _161  and  _163
REMARK   71  A    between atoms: _163  and  _164
REMARK   72  A    between atoms: _163  and  _166
REMARK   73  A    between atoms: _169  and  _171
REMARK   74  A    between atoms: _171  and  _172
REMARK   75  A    between atoms: _171  and  _174
REMARK   76  A    between atoms: _174  and  _175
REMARK   77  A    between atoms: _177  and  _179
REMARK   78  A    between atoms: _179  and  _180
REMARK   79  A    between atoms: _182  and  _184
REMARK   80  A    between atoms: _184  and  _185
REMARK   81  A    between atoms: _184  and  _187
REMARK   82  A    between atoms: _187  and  _188
REMARK   83  A    between atoms: _191  and  _193
REMARK   84  A    between atoms: _193  and  _194
REMARK   85  A    between atoms: _197  and  _199
REMARK   86  A    between atoms: _199  and  _200
REMARK   87  A    between atoms: _199  and  _202
REMARK   88  A    between atoms: _202  and  _203
REMARK   89  A    between atoms: _209  and  _211
REMARK   90  A    between atoms: _211  and  _212
REMARK   91  A    between atoms: _211  and  _214
REMARK   92  A    between atoms: _214  and  _215
REMARK   93  A    between atoms: _218  and  _220
REMARK   94  A    between atoms: _220  and  _221
REMARK   95  A    between atoms: _220  and  _223
REMARK   96  A    between atoms: _223  and  _224
REMARK   97  A    between atoms: _229  and  _231
REMARK   98  A    between atoms: _231  and  _232
REMARK   99  A    between atoms: _234  and  _236
REMARK  100  A    between atoms: _236  and  _237
REMARK  101  A    between atoms: _236  and  _239
REMARK  102  A    between atoms: _239  and  _240
REMARK  103  A    between atoms: _243  and  _245
REMARK  104  A    between atoms: _245  and  _246
REMARK  105  A    between atoms: _245  and  _248
REMARK  106  A    between atoms: _248  and  _249
REMARK  107  A    between atoms: _252  and  _254
REMARK  108  A    between atoms: _254  and  _255
REMARK  109  A    between atoms: _258  and  _260
REMARK  110  A    between atoms: _260  and  _261
REMARK  111  A    between atoms: _260  and  _263
REMARK  112  A    between atoms: _266  and  _268
REMARK  113  A    between atoms: _268  and  _269
REMARK  114  A    between atoms: _268  and  _271
REMARK  115  A    between atoms: _271  and  _272
REMARK  116  A    between atoms: _272  and  _273
REMARK  117  A    between atoms: _276  and  _278
REMARK  118  A    between atoms: _278  and  _279
REMARK  119  A    between atoms: _278  and  _281
REMARK  120  A    between atoms: _281  and  _282
REMARK  121  A    between atoms: _282  and  _283
REMARK  122  A    between atoms: _285  and  _287
REMARK  123  A    between atoms: _287  and  _288
REMARK  124  A    between atoms: _287  and  _290
REMARK  125  A    between atoms: _290  and  _291
REMARK  126  A    between atoms: _291  and  _292
REMARK  127  A    between atoms: _295  and  _297
REMARK  128  A    between atoms: _297  and  _298
REMARK  129  A    between atoms: _301  and  _303
REMARK  130  A    between atoms: _303  and  _304
REMARK  131  A    between atoms: _303  and  _306
REMARK  132  A    between atoms: _306  and  _307
REMARK  133  A    between atoms: _310  and  _312
REMARK  134  A    between atoms: _312  and  _313
REMARK  135  A    between atoms: _312  and  _315
REMARK  136  A    between atoms: _315  and  _316
REMARK  137  A    between atoms: _319  and  _321
REMARK  138  A    between atoms: _321  and  _322
REMARK  139  A    between atoms: _321  and  _324
REMARK  140  A    between atoms: _324  and  _325
REMARK  141  A    between atoms: _325  and  _326
REMARK  142  A    between atoms: _326  and  _327
REMARK  143  A    between atoms: _336  and  _338
REMARK  144  A    between atoms: _338  and  _339
REMARK  145  A    between atoms: _342  and  _344
REMARK  146  A    between atoms: _344  and  _345
REMARK  147  A    between atoms: _344  and  _347
REMARK  148  A    between atoms: _347  and  _348
REMARK  149  A    between atoms: _351  and  _353
REMARK  150  A    between atoms: _353  and  _354
REMARK  151  A    between atoms: _353  and  _356
REMARK  152  A    between atoms: _356  and  _357
REMARK  153  A    between atoms: _359  and  _361
REMARK  154  A    between atoms: _361  and  _362
REMARK  155  A    between atoms: _361  and  _364
REMARK  156  A    between atoms: _364  and  _365
REMARK  157  A    between atoms: _368  and  _370
REMARK  158  A    between atoms: _370  and  _371
REMARK  159  A    between atoms: _370  and  _373
REMARK  160  A    between atoms: _376  and  _378
REMARK  161  A    between atoms: _378  and  _379
REMARK  162  A    between atoms: _382  and  _384
REMARK  163  A    between atoms: _384  and  _385
REMARK  164  A    between atoms: _384  and  _387
REMARK  165  A    between atoms: _387  and  _388
REMARK  166  A    between atoms: _391  and  _393
REMARK  167  A    between atoms: _393  and  _394
REMARK  168  A    between atoms: _393  and  _396
REMARK  169  A    between atoms: _396  and  _397
REMARK  170  A    between atoms: _399  and  _401
REMARK  171  A    between atoms: _401  and  _402
REMARK  172  A    between atoms: _401  and  _404
REMARK  173  A    between atoms: _404  and  _405
REMARK  174  A    between atoms: _410  and  _412
REMARK  175  A    between atoms: _412  and  _413
REMARK  176  A    between atoms: _412  and  _415
REMARK  177  A    between atoms: _415  and  _416
REMARK  178  A    between atoms: _418  and  _420
REMARK  179  A    between atoms: _420  and  _421
REMARK  180  A    between atoms: _420  and  _423
REMARK  181  A    between atoms: _423  and  _424
REMARK  182  A    between atoms: _430  and  _432
REMARK  183  A    between atoms: _432  and  _433
REMARK  184  A    between atoms: _432  and  _435
REMARK  185  A    between atoms: _435  and  _436
REMARK  186  A    between atoms: _439  and  _441
REMARK  187  A    between atoms: _441  and  _442
REMARK  188  A    between atoms: _441  and  _444
REMARK  189  A    between atoms: _444  and  _445
REMARK  190  A    between atoms: _448  and  _450
REMARK  191  A    between atoms: _450  and  _451
REMARK  192  A    between atoms: _454  and  _456
REMARK  193  A    between atoms: _456  and  _457
REMARK  194  A    between atoms: _456  and  _459
REMARK  195  A    between atoms: _459  and  _460
REMARK  196  A    between atoms: _463  and  _465
REMARK  197  A    between atoms: _465  and  _466
REMARK  198  A    between atoms: _465  and  _468
REMARK  199  A    between atoms: _471  and  _473
REMARK  200  A    between atoms: _473  and  _474
REMARK  201  A    between atoms: _477  and  _479
REMARK  202  A    between atoms: _479  and  _480
REMARK  203  A    between atoms: _479  and  _482
REMARK  204  A    between atoms: _482  and  _483
REMARK  205  A    between atoms: _489  and  _491
REMARK  206  A    between atoms: _491  and  _492
REMARK  207  A    between atoms: _491  and  _494
REMARK  208  A    between atoms: _494  and  _495
REMARK  209  A    between atoms: _500  and  _501
REMARK  210  A    between atoms: _503  and  _505
REMARK  211  A    between atoms: _505  and  _506
REMARK  212  A    between atoms: _505  and  _508
REMARK  213  A    between atoms: _508  and  _509
REMARK  214  A    between atoms: _513  and  _514
REMARK                            x       y       z     vdW  Elec       q    Type
REMARK                         _______ _______ _______ _____ _____    ______ ____
ROOT
ATOM      1  O   HOH     1      51.124  71.910  11.131  0.00  0.00    +0.000 OA
ENDROOT
TORSDOF 0
REMARK  Name = ../refined-set-2016/1y6r/1y6r_pocket.pdb
REMARK  214 active torsions:
REMARK  status: ('A' for Active; 'I' for Inactive)
REMARK    1  A    between atoms: _1  and  _3
REMARK    2  A    between atoms: _3  and  _4
REMARK    3  A    between atoms: _6  and  _8
REMARK    4  A    between atoms: _8  and  _9
REMARK    5  A    between atoms: _12  and  _14
REMARK    6  A    between atoms: _14  and  _15
REMARK    7  A    between atoms: _14  and  _17
REMARK    8  A    between atoms: _17  and  _18
REMARK    9  A    between atoms: _18  and  _19
REMARK   10  A    between atoms: _21  and  _23
REMARK   11  A    between atoms: _23  and  _24
REMARK   12  A    between atoms: _23  and  _26
REMARK   13  A    between atoms: _26  and  _27
REMARK   14  A    between atoms: _27  and  _28
REMARK   15  A    between atoms: _31  and  _33
REMARK   16  A    between atoms: _33  and  _34
REMARK   17  A    between atoms: _33  and  _36
REMARK   18  A    between atoms: _36  and  _37
REMARK   19  A    between atoms: _39  and  _41
REMARK   20  A    between atoms: _41  and  _42
REMARK   21  A    between atoms: _44  and  _46
REMARK   22  A    between atoms: _46  and  _47
REMARK   23  A    between atoms: _46  and  _49
REMARK   24  A    between atoms: _49  and  _50
REMARK   25  A    between atoms: _53  and  _55
REMARK   26  A    between atoms: _55  and  _56
REMARK   27  A    between atoms: _58  and  _60
REMARK   28  A    between atoms: _60  and  _61
REMARK   29  A    between atoms: _60  and  _63
REMARK   30  A    between atoms: _63  and  _64
REMARK   31  A    between atoms: _64  and  _65
REMARK   32  A    between atoms: _65  and  _66
REMARK   33  A    between atoms: _66  and  _67
REMARK   34  A    between atoms: _71  and  _73
REMARK   35  A    between atoms: _73  and  _74
REMARK   36  A    between atoms: _77  and  _79
REMARK   37  A    between atoms: _79  and  _80
REMARK   38  A    between atoms: _83  and  _85
REMARK   39  A    between atoms: _85  and  _86
REMARK   40  A    between atoms: _85  and  _88
REMARK   41  A    between atoms: _88  and  _89
REMARK   42  A    between atoms: _94  and  _96
REMARK   43  A    between atoms: _96  and  _97
REMARK   44  A    between atoms: _96  and  _99
REMARK   45  A    between atoms: _99  and  _100
REMARK   46  A    between atoms: _103  and  _105
REMARK   47  A    between atoms: _105  and  _106
REMARK   48  A    between atoms: _108  and  _110
REMARK   49  A    between atoms: _110  and  _111
REMARK   50  A    between atoms: _110  and  _113
REMARK   51  A    between atoms: _113  and  _114
REMARK   52  A    between atoms: _116  and  _118
REMARK   53  A    between atoms: _118  and  _119
REMARK   54  A    between atoms: _122  and  _124
REMARK   55  A    between atoms: _124  and  _125
REMARK   56  A    between atoms: _127  and  _129
REMARK   57  A    between atoms: _129  and  _130
REMARK   58  A    between atoms: _132  and  _134
REMARK   59  A    between atoms: _134  and  _135
REMARK   60  A    between atoms: _134  and  _137
REMARK   61  A    between atoms: _137  and  _138
REMARK   62  A    between atoms: _141  and  _143
REMARK   63  A    between atoms: _143  and  _144
REMARK   64  A    between atoms: _143  and  _146
REMARK   65  A    between atoms: _146  and  _147
REMARK   66  A    between atoms: _152  and  _154
REMARK   67  A    between atoms: _154  and  _155
REMARK   68  A    between atoms: _154  and  _157
REMARK   69  A    between atoms: _157  and  _158
REMARK   70  A    between atoms: _161  and  _163
REMARK   71  A    between atoms: _163  and  _164
REMARK   72  A    between atoms: _163  and  _166
REMARK   73  A    between atoms: _169  and  _171
REMARK   74  A    between atoms: _171  and  _172
REMARK   75  A    between atoms: _171  and  _174
REMARK   76  A    between atoms: _174  and  _175
REMARK   77  A    between atoms: _177  and  _179
REMARK   78  A    between atoms: _179  and  _180
REMARK   79  A    between atoms: _182  and  _184
REMARK   80  A    between atoms: _184  and  _185
REMARK   81  A    between atoms: _184  and  _187
REMARK   82  A    between atoms: _187  and  _188
REMARK   83  A    between atoms: _191  and  _193
REMARK   84  A    between atoms: _193  and  _194
REMARK   85  A    between atoms: _197  and  _199
REMARK   86  A    between atoms: _199  and  _200
REMARK   87  A    between atoms: _199  and  _202
REMARK   88  A    between atoms: _202  and  _203
REMARK   89  A    between atoms: _209  and  _211
REMARK   90  A    between atoms: _211  and  _212
REMARK   91  A    between atoms: _211  and  _214
REMARK   92  A    between atoms: _214  and  _215
REMARK   93  A    between atoms: _218  and  _220
REMARK   94  A    between atoms: _220  and  _221
REMARK   95  A    between atoms: _220  and  _223
REMARK   96  A    between atoms: _223  and  _224
REMARK   97  A    between atoms: _229  and  _231
REMARK   98  A    between atoms: _231  and  _232
REMARK   99  A    between atoms: _234  and  _236
REMARK  100  A    between atoms: _236  and  _237
REMARK  101  A    between atoms: _236  and  _239
REMARK  102  A    between atoms: _239  and  _240
REMARK  103  A    between atoms: _243  and  _245
REMARK  104  A    between atoms: _245  and  _246
REMARK  105  A    between atoms: _245  and  _248
REMARK  106  A    between atoms: _248  and  _249
REMARK  107  A    between atoms: _252  and  _254
REMARK  108  A    between atoms: _254  and  _255
REMARK  109  A    between atoms: _258  and  _260
REMARK  110  A    between atoms: _260  and  _261
REMARK  111  A    between atoms: _260  and  _263
REMARK  112  A    between atoms: _266  and  _268
REMARK  113  A    between atoms: _268  and  _269
REMARK  114  A    between atoms: _268  and  _271
REMARK  115  A    between atoms: _271  and  _272
REMARK  116  A    between atoms: _272  and  _273
REMARK  117  A    between atoms: _276  and  _278
REMARK  118  A    between atoms: _278  and  _279
REMARK  119  A    between atoms: _278  and  _281
REMARK  120  A    between atoms: _281  and  _282
REMARK  121  A    between atoms: _282  and  _283
REMARK  122  A    between atoms: _285  and  _287
REMARK  123  A    between atoms: _287  and  _288
REMARK  124  A    between atoms: _287  and  _290
REMARK  125  A    between atoms: _290  and  _291
REMARK  126  A    between atoms: _291  and  _292
REMARK  127  A    between atoms: _295  and  _297
REMARK  128  A    between atoms: _297  and  _298
REMARK  129  A    between atoms: _301  and  _303
REMARK  130  A    between atoms: _303  and  _304
REMARK  131  A    between atoms: _303  and  _306
REMARK  132  A    between atoms: _306  and  _307
REMARK  133  A    between atoms: _310  and  _312
REMARK  134  A    between atoms: _312  and  _313
REMARK  135  A    between atoms: _312  and  _315
REMARK  136  A    between atoms: _315  and  _316
REMARK  137  A    between atoms: _319  and  _321
REMARK  138  A    between atoms: _321  and  _322
REMARK  139  A    between atoms: _321  and  _324
REMARK  140  A    between atoms: _324  and  _325
REMARK  141  A    between atoms: _325  and  _326
REMARK  142  A    between atoms: _326  and  _327
REMARK  143  A    between atoms: _336  and  _338
REMARK  144  A    between atoms: _338  and  _339
REMARK  145  A    between atoms: _342  and  _344
REMARK  146  A    between atoms: _344  and  _345
REMARK  147  A    between atoms: _344  and  _347
REMARK  148  A    between atoms: _347  and  _348
REMARK  149  A    between atoms: _351  and  _353
REMARK  150  A    between atoms: _353  and  _354
REMARK  151  A    between atoms: _353  and  _356
REMARK  152  A    between atoms: _356  and  _357
REMARK  153  A    between atoms: _359  and  _361
REMARK  154  A    between atoms: _361  and  _362
REMARK  155  A    between atoms: _361  and  _364
REMARK  156  A    between atoms: _364  and  _365
REMARK  157  A    between atoms: _368  and  _370
REMARK  158  A    between atoms: _370  and  _371
REMARK  159  A    between atoms: _370  and  _373
REMARK  160  A    between atoms: _376  and  _378
REMARK  161  A    between atoms: _378  and  _379
REMARK  162  A    between atoms: _382  and  _384
REMARK  163  A    between atoms: _384  and  _385
REMARK  164  A    between atoms: _384  and  _387
REMARK  165  A    between atoms: _387  and  _388
REMARK  166  A    between atoms: _391  and  _393
REMARK  167  A    between atoms: _393  and  _394
REMARK  168  A    between atoms: _393  and  _396
REMARK  169  A    between atoms: _396  and  _397
REMARK  170  A    between atoms: _399  and  _401
REMARK  171  A    between atoms: _401  and  _402
REMARK  172  A    between atoms: _401  and  _404
REMARK  173  A    between atoms: _404  and  _405
REMARK  174  A    between atoms: _410  and  _412
REMARK  175  A    between atoms: _412  and  _413
REMARK  176  A    between atoms: _412  and  _415
REMARK  177  A    between atoms: _415  and  _416
REMARK  178  A    between atoms: _418  and  _420
REMARK  179  A    between atoms: _420  and  _421
REMARK  180  A    between atoms: _420  and  _423
REMARK  181  A    between atoms: _423  and  _424
REMARK  182  A    between atoms: _430  and  _432
REMARK  183  A    between atoms: _432  and  _433
REMARK  184  A    between atoms: _432  and  _435
REMARK  185  A    between atoms: _435  and  _436
REMARK  186  A    between atoms: _439  and  _441
REMARK  187  A    between atoms: _441  and  _442
REMARK  188  A    between atoms: _441  and  _444
REMARK  189  A    between atoms: _444  and  _445
REMARK  190  A    between atoms: _448  and  _450
REMARK  191  A    between atoms: _450  and  _451
REMARK  192  A    between atoms: _454  and  _456
REMARK  193  A    between atoms: _456  and  _457
REMARK  194  A    between atoms: _456  and  _459
REMARK  195  A    between atoms: _459  and  _460
REMARK  196  A    between atoms: _463  and  _465
REMARK  197  A    between atoms: _465  and  _466
REMARK  198  A    between atoms: _465  and  _468
REMARK  199  A    between atoms: _471  and  _473
REMARK  200  A    between atoms: _473  and  _474
REMARK  201  A    between atoms: _477  and  _479
REMARK  202  A    between atoms: _479  and  _480
REMARK  203  A    between atoms: _479  and  _482
REMARK  204  A    between atoms: _482  and  _483
REMARK  205  A    between atoms: _489  and  _491
REMARK  206  A    between atoms: _491  and  _492
REMARK  207  A    between atoms: _491  and  _494
REMARK  208  A    between atoms: _494  and  _495
REMARK  209  A    between atoms: _500  and  _501
REMARK  210  A    between atoms: _503  and  _505
REMARK  211  A    between atoms: _505  and  _506
REMARK  212  A    between atoms: _505  and  _508
REMARK  213  A    between atoms: _508  and  _509
REMARK  214  A    between atoms: _513  and  _514
REMARK                            x       y       z     vdW  Elec       q    Type
REMARK                         _______ _______ _______ _____ _____    ______ ____
ROOT
ATOM      1  O   HOH     1      61.313  66.942  26.945  0.00  0.00    +0.000 OA
ENDROOT
TORSDOF 0
REMARK  Name = ../refined-set-2016/1y6r/1y6r_pocket.pdb
REMARK  214 active torsions:
REMARK  status: ('A' for Active; 'I' for Inactive)
REMARK    1  A    between atoms: _1  and  _3
REMARK    2  A    between atoms: _3  and  _4
REMARK    3  A    between atoms: _6  and  _8
REMARK    4  A    between atoms: _8  and  _9
REMARK    5  A    between atoms: _12  and  _14
REMARK    6  A    between atoms: _14  and  _15
REMARK    7  A    between atoms: _14  and  _17
REMARK    8  A    between atoms: _17  and  _18
REMARK    9  A    between atoms: _18  and  _19
REMARK   10  A    between atoms: _21  and  _23
REMARK   11  A    between atoms: _23  and  _24
REMARK   12  A    between atoms: _23  and  _26
REMARK   13  A    between atoms: _26  and  _27
REMARK   14  A    between atoms: _27  and  _28
REMARK   15  A    between atoms: _31  and  _33
REMARK   16  A    between atoms: _33  and  _34
REMARK   17  A    between atoms: _33  and  _36
REMARK   18  A    between atoms: _36  and  _37
REMARK   19  A    between atoms: _39  and  _41
REMARK   20  A    between atoms: _41  and  _42
REMARK   21  A    between atoms: _44  and  _46
REMARK   22  A    between atoms: _46  and  _47
REMARK   23  A    between atoms: _46  and  _49
REMARK   24  A    between atoms: _49  and  _50
REMARK   25  A    between atoms: _53  and  _55
REMARK   26  A    between atoms: _55  and  _56
REMARK   27  A    between atoms: _58  and  _60
REMARK   28  A    between atoms: _60  and  _61
REMARK   29  A    between atoms: _60  and  _63
REMARK   30  A    between atoms: _63  and  _64
REMARK   31  A    between atoms: _64  and  _65
REMARK   32  A    between atoms: _65  and  _66
REMARK   33  A    between atoms: _66  and  _67
REMARK   34  A    between atoms: _71  and  _73
REMARK   35  A    between atoms: _73  and  _74
REMARK   36  A    between atoms: _77  and  _79
REMARK   37  A    between atoms: _79  and  _80
REMARK   38  A    between atoms: _83  and  _85
REMARK   39  A    between atoms: _85  and  _86
REMARK   40  A    between atoms: _85  and  _88
REMARK   41  A    between atoms: _88  and  _89
REMARK   42  A    between atoms: _94  and  _96
REMARK   43  A    between atoms: _96  and  _97
REMARK   44  A    between atoms: _96  and  _99
REMARK   45  A    between atoms: _99  and  _100
REMARK   46  A    between atoms: _103  and  _105
REMARK   47  A    between atoms: _105  and  _106
REMARK   48  A    between atoms: _108  and  _110
REMARK   49  A    between atoms: _110  and  _111
REMARK   50  A    between atoms: _110  and  _113
REMARK   51  A    between atoms: _113  and  _114
REMARK   52  A    between atoms: _116  and  _118
REMARK   53  A    between atoms: _118  and  _119
REMARK   54  A    between atoms: _122  and  _124
REMARK   55  A    between atoms: _124  and  _125
REMARK   56  A    between atoms: _127  and  _129
REMARK   57  A    between atoms: _129  and  _130
REMARK   58  A    between atoms: _132  and  _134
REMARK   59  A    between atoms: _134  and  _135
REMARK   60  A    between atoms: _134  and  _137
REMARK   61  A    between atoms: _137  and  _138
REMARK   62  A    between atoms: _141  and  _143
REMARK   63  A    between atoms: _143  and  _144
REMARK   64  A    between atoms: _143  and  _146
REMARK   65  A    between atoms: _146  and  _147
REMARK   66  A    between atoms: _152  and  _154
REMARK   67  A    between atoms: _154  and  _155
REMARK   68  A    between atoms: _154  and  _157
REMARK   69  A    between atoms: _157  and  _158
REMARK   70  A    between atoms: _161  and  _163
REMARK   71  A    between atoms: _163  and  _164
REMARK   72  A    between atoms: _163  and  _166
REMARK   73  A    between atoms: _169  and  _171
REMARK   74  A    between atoms: _171  and  _172
REMARK   75  A    between atoms: _171  and  _174
REMARK   76  A    between atoms: _174  and  _175
REMARK   77  A    between atoms: _177  and  _179
REMARK   78  A    between atoms: _179  and  _180
REMARK   79  A    between atoms: _182  and  _184
REMARK   80  A    between atoms: _184  and  _185
REMARK   81  A    between atoms: _184  and  _187
REMARK   82  A    between atoms: _187  and  _188
REMARK   83  A    between atoms: _191  and  _193
REMARK   84  A    between atoms: _193  and  _194
REMARK   85  A    between atoms: _197  and  _199
REMARK   86  A    between atoms: _199  and  _200
REMARK   87  A    between atoms: _199  and  _202
REMARK   88  A    between atoms: _202  and  _203
REMARK   89  A    between atoms: _209  and  _211
REMARK   90  A    between atoms: _211  and  _212
REMARK   91  A    between atoms: _211  and  _214
REMARK   92  A    between atoms: _214  and  _215
REMARK   93  A    between atoms: _218  and  _220
REMARK   94  A    between atoms: _220  and  _221
REMARK   95  A    between atoms: _220  and  _223
REMARK   96  A    between atoms: _223  and  _224
REMARK   97  A    between atoms: _229  and  _231
REMARK   98  A    between atoms: _231  and  _232
REMARK   99  A    between atoms: _234  and  _236
REMARK  100  A    between atoms: _236  and  _237
REMARK  101  A    between atoms: _236  and  _239
REMARK  102  A    between atoms: _239  and  _240
REMARK  103  A    between atoms: _243  and  _245
REMARK  104  A    between atoms: _245  and  _246
REMARK  105  A    between atoms: _245  and  _248
REMARK  106  A    between atoms: _248  and  _249
REMARK  107  A    between atoms: _252  and  _254
REMARK  108  A    between atoms: _254  and  _255
REMARK  109  A    between atoms: _258  and  _260
REMARK  110  A    between atoms: _260  and  _261
REMARK  111  A    between atoms: _260  and  _263
REMARK  112  A    between atoms: _266  and  _268
REMARK  113  A    between atoms: _268  and  _269
REMARK  114  A    between atoms: _268  and  _271
REMARK  115  A    between atoms: _271  and  _272
REMARK  116  A    between atoms: _272  and  _273
REMARK  117  A    between atoms: _276  and  _278
REMARK  118  A    between atoms: _278  and  _279
REMARK  119  A    between atoms: _278  and  _281
REMARK  120  A    between atoms: _281  and  _282
REMARK  121  A    between atoms: _282  and  _283
REMARK  122  A    between atoms: _285  and  _287
REMARK  123  A    between atoms: _287  and  _288
REMARK  124  A    between atoms: _287  and  _290
REMARK  125  A    between atoms: _290  and  _291
REMARK  126  A    between atoms: _291  and  _292
REMARK  127  A    between atoms: _295  and  _297
REMARK  128  A    between atoms: _297  and  _298
REMARK  129  A    between atoms: _301  and  _303
REMARK  130  A    between atoms: _303  and  _304
REMARK  131  A    between atoms: _303  and  _306
REMARK  132  A    between atoms: _306  and  _307
REMARK  133  A    between atoms: _310  and  _312
REMARK  134  A    between atoms: _312  and  _313
REMARK  135  A    between atoms: _312  and  _315
REMARK  136  A    between atoms: _315  and  _316
REMARK  137  A    between atoms: _319  and  _321
REMARK  138  A    between atoms: _321  and  _322
REMARK  139  A    between atoms: _321  and  _324
REMARK  140  A    between atoms: _324  and  _325
REMARK  141  A    between atoms: _325  and  _326
REMARK  142  A    between atoms: _326  and  _327
REMARK  143  A    between atoms: _336  and  _338
REMARK  144  A    between atoms: _338  and  _339
REMARK  145  A    between atoms: _342  and  _344
REMARK  146  A    between atoms: _344  and  _345
REMARK  147  A    between atoms: _344  and  _347
REMARK  148  A    between atoms: _347  and  _348
REMARK  149  A    between atoms: _351  and  _353
REMARK  150  A    between atoms: _353  and  _354
REMARK  151  A    between atoms: _353  and  _356
REMARK  152  A    between atoms: _356  and  _357
REMARK  153  A    between atoms: _359  and  _361
REMARK  154  A    between atoms: _361  and  _362
REMARK  155  A    between atoms: _361  and  _364
REMARK  156  A    between atoms: _364  and  _365
REMARK  157  A    between atoms: _368  and  _370
REMARK  158  A    between atoms: _370  and  _371
REMARK  159  A    between atoms: _370  and  _373
REMARK  160  A    between atoms: _376  and  _378
REMARK  161  A    between atoms: _378  and  _379
REMARK  162  A    between atoms: _382  and  _384
REMARK  163  A    between atoms: _384  and  _385
REMARK  164  A    between atoms: _384  and  _387
REMARK  165  A    between atoms: _387  and  _388
REMARK  166  A    between atoms: _391  and  _393
REMARK  167  A    between atoms: _393  and  _394
REMARK  168  A    between atoms: _393  and  _396
REMARK  169  A    between atoms: _396  and  _397
REMARK  170  A    between atoms: _399  and  _401
REMARK  171  A    between atoms: _401  and  _402
REMARK  172  A    between atoms: _401  and  _404
REMARK  173  A    between atoms: _404  and  _405
REMARK  174  A    between atoms: _410  and  _412
REMARK  175  A    between atoms: _412  and  _413
REMARK  176  A    between atoms: _412  and  _415
REMARK  177  A    between atoms: _415  and  _416
REMARK  178  A    between atoms: _418  and  _420
REMARK  179  A    between atoms: _420  and  _421
REMARK  180  A    between atoms: _420  and  _423
REMARK  181  A    between atoms: _423  and  _424
REMARK  182  A    between atoms: _430  and  _432
REMARK  183  A    between atoms: _432  and  _433
REMARK  184  A    between atoms: _432  and  _435
REMARK  185  A    between atoms: _435  and  _436
REMARK  186  A    between atoms: _439  and  _441
REMARK  187  A    between atoms: _441  and  _442
REMARK  188  A    between atoms: _441  and  _444
REMARK  189  A    between atoms: _444  and  _445
REMARK  190  A    between atoms: _448  and  _450
REMARK  191  A    between atoms: _450  and  _451
REMARK  192  A    between atoms: _454  and  _456
REMARK  193  A    between atoms: _456  and  _457
REMARK  194  A    between atoms: _456  and  _459
REMARK  195  A    between atoms: _459  and  _460
REMARK  196  A    between atoms: _463  and  _465
REMARK  197  A    between atoms: _465  and  _466
REMARK  198  A    between atoms: _465  and  _468
REMARK  199  A    between atoms: _471  and  _473
REMARK  200  A    between atoms: _473  and  _474
REMARK  201  A    between atoms: _477  and  _479
REMARK  202  A    between atoms: _479  and  _480
REMARK  203  A    between atoms: _479  and  _482
REMARK  204  A    between atoms: _482  and  _483
REMARK  205  A    between atoms: _489  and  _491
REMARK  206  A    between atoms: _491  and  _492
REMARK  207  A    between atoms: _491  and  _494
REMARK  208  A    between atoms: _494  and  _495
REMARK  209  A    between atoms: _500  and  _501
REMARK  210  A    between atoms: _503  and  _505
REMARK  211  A    between atoms: _505  and  _506
REMARK  212  A    between atoms: _505  and  _508
REMARK  213  A    between atoms: _508  and  _509
REMARK  214  A    between atoms: _513  and  _514
REMARK                            x       y       z     vdW  Elec       q    Type
REMARK                         _______ _______ _______ _____ _____    ______ ____
ROOT
ATOM      1  O   HOH     1      45.115  74.875  19.889  0.00  0.00    +0.000 OA
ENDROOT
TORSDOF 0
REMARK  Name = ../refined-set-2016/1y6r/1y6r_pocket.pdb
REMARK  214 active torsions:
REMARK  status: ('A' for Active; 'I' for Inactive)
REMARK    1  A    between atoms: _1  and  _3
REMARK    2  A    between atoms: _3  and  _4
REMARK    3  A    between atoms: _6  and  _8
REMARK    4  A    between atoms: _8  and  _9
REMARK    5  A    between atoms: _12  and  _14
REMARK    6  A    between atoms: _14  and  _15
REMARK    7  A    between atoms: _14  and  _17
REMARK    8  A    between atoms: _17  and  _18
REMARK    9  A    between atoms: _18  and  _19
REMARK   10  A    between atoms: _21  and  _23
REMARK   11  A    between atoms: _23  and  _24
REMARK   12  A    between atoms: _23  and  _26
REMARK   13  A    between atoms: _26  and  _27
REMARK   14  A    between atoms: _27  and  _28
REMARK   15  A    between atoms: _31  and  _33
REMARK   16  A    between atoms: _33  and  _34
REMARK   17  A    between atoms: _33  and  _36
REMARK   18  A    between atoms: _36  and  _37
REMARK   19  A    between atoms: _39  and  _41
REMARK   20  A    between atoms: _41  and  _42
REMARK   21  A    between atoms: _44  and  _46
REMARK   22  A    between atoms: _46  and  _47
REMARK   23  A    between atoms: _46  and  _49
REMARK   24  A    between atoms: _49  and  _50
REMARK   25  A    between atoms: _53  and  _55
REMARK   26  A    between atoms: _55  and  _56
REMARK   27  A    between atoms: _58  and  _60
REMARK   28  A    between atoms: _60  and  _61
REMARK   29  A    between atoms: _60  and  _63
REMARK   30  A    between atoms: _63  and  _64
REMARK   31  A    between atoms: _64  and  _65
REMARK   32  A    between atoms: _65  and  _66
REMARK   33  A    between atoms: _66  and  _67
REMARK   34  A    between atoms: _71  and  _73
REMARK   35  A    between atoms: _73  and  _74
REMARK   36  A    between atoms: _77  and  _79
REMARK   37  A    between atoms: _79  and  _80
REMARK   38  A    between atoms: _83  and  _85
REMARK   39  A    between atoms: _85  and  _86
REMARK   40  A    between atoms: _85  and  _88
REMARK   41  A    between atoms: _88  and  _89
REMARK   42  A    between atoms: _94  and  _96
REMARK   43  A    between atoms: _96  and  _97
REMARK   44  A    between atoms: _96  and  _99
REMARK   45  A    between atoms: _99  and  _100
REMARK   46  A    between atoms: _103  and  _105
REMARK   47  A    between atoms: _105  and  _106
REMARK   48  A    between atoms: _108  and  _110
REMARK   49  A    between atoms: _110  and  _111
REMARK   50  A    between atoms: _110  and  _113
REMARK   51  A    between atoms: _113  and  _114
REMARK   52  A    between atoms: _116  and  _118
REMARK   53  A    between atoms: _118  and  _119
REMARK   54  A    between atoms: _122  and  _124
REMARK   55  A    between atoms: _124  and  _125
REMARK   56  A    between atoms: _127  and  _129
REMARK   57  A    between atoms: _129  and  _130
REMARK   58  A    between atoms: _132  and  _134
REMARK   59  A    between atoms: _134  and  _135
REMARK   60  A    between atoms: _134  and  _137
REMARK   61  A    between atoms: _137  and  _138
REMARK   62  A    between atoms: _141  and  _143
REMARK   63  A    between atoms: _143  and  _144
REMARK   64  A    between atoms: _143  and  _146
REMARK   65  A    between atoms: _146  and  _147
REMARK   66  A    between atoms: _152  and  _154
REMARK   67  A    between atoms: _154  and  _155
REMARK   68  A    between atoms: _154  and  _157
REMARK   69  A    between atoms: _157  and  _158
REMARK   70  A    between atoms: _161  and  _163
REMARK   71  A    between atoms: _163  and  _164
REMARK   72  A    between atoms: _163  and  _166
REMARK   73  A    between atoms: _169  and  _171
REMARK   74  A    between atoms: _171  and  _172
REMARK   75  A    between atoms: _171  and  _174
REMARK   76  A    between atoms: _174  and  _175
REMARK   77  A    between atoms: _177  and  _179
REMARK   78  A    between atoms: _179  and  _180
REMARK   79  A    between atoms: _182  and  _184
REMARK   80  A    between atoms: _184  and  _185
REMARK   81  A    between atoms: _184  and  _187
REMARK   82  A    between atoms: _187  and  _188
REMARK   83  A    between atoms: _191  and  _193
REMARK   84  A    between atoms: _193  and  _194
REMARK   85  A    between atoms: _197  and  _199
REMARK   86  A    between atoms: _199  and  _200
REMARK   87  A    between atoms: _199  and  _202
REMARK   88  A    between atoms: _202  and  _203
REMARK   89  A    between atoms: _209  and  _211
REMARK   90  A    between atoms: _211  and  _212
REMARK   91  A    between atoms: _211  and  _214
REMARK   92  A    between atoms: _214  and  _215
REMARK   93  A    between atoms: _218  and  _220
REMARK   94  A    between atoms: _220  and  _221
REMARK   95  A    between atoms: _220  and  _223
REMARK   96  A    between atoms: _223  and  _224
REMARK   97  A    between atoms: _229  and  _231
REMARK   98  A    between atoms: _231  and  _232
REMARK   99  A    between atoms: _234  and  _236
REMARK  100  A    between atoms: _236  and  _237
REMARK  101  A    between atoms: _236  and  _239
REMARK  102  A    between atoms: _239  and  _240
REMARK  103  A    between atoms: _243  and  _245
REMARK  104  A    between atoms: _245  and  _246
REMARK  105  A    between atoms: _245  and  _248
REMARK  106  A    between atoms: _248  and  _249
REMARK  107  A    between atoms: _252  and  _254
REMARK  108  A    between atoms: _254  and  _255
REMARK  109  A    between atoms: _258  and  _260
REMARK  110  A    between atoms: _260  and  _261
REMARK  111  A    between atoms: _260  and  _263
REMARK  112  A    between atoms: _266  and  _268
REMARK  113  A    between atoms: _268  and  _269
REMARK  114  A    between atoms: _268  and  _271
REMARK  115  A    between atoms: _271  and  _272
REMARK  116  A    between atoms: _272  and  _273
REMARK  117  A    between atoms: _276  and  _278
REMARK  118  A    between atoms: _278  and  _279
REMARK  119  A    between atoms: _278  and  _281
REMARK  120  A    between atoms: _281  and  _282
REMARK  121  A    between atoms: _282  and  _283
REMARK  122  A    between atoms: _285  and  _287
REMARK  123  A    between atoms: _287  and  _288
REMARK  124  A    between atoms: _287  and  _290
REMARK  125  A    between atoms: _290  and  _291
REMARK  126  A    between atoms: _291  and  _292
REMARK  127  A    between atoms: _295  and  _297
REMARK  128  A    between atoms: _297  and  _298
REMARK  129  A    between atoms: _301  and  _303
REMARK  130  A    between atoms: _303  and  _304
REMARK  131  A    between atoms: _303  and  _306
REMARK  132  A    between atoms: _306  and  _307
REMARK  133  A    between atoms: _310  and  _312
REMARK  134  A    between atoms: _312  and  _313
REMARK  135  A    between atoms: _312  and  _315
REMARK  136  A    between atoms: _315  and  _316
REMARK  137  A    between atoms: _319  and  _321
REMARK  138  A    between atoms: _321  and  _322
REMARK  139  A    between atoms: _321  and  _324
REMARK  140  A    between atoms: _324  and  _325
REMARK  141  A    between atoms: _325  and  _326
REMARK  142  A    between atoms: _326  and  _327
REMARK  143  A    between atoms: _336  and  _338
REMARK  144  A    between atoms: _338  and  _339
REMARK  145  A    between atoms: _342  and  _344
REMARK  146  A    between atoms: _344  and  _345
REMARK  147  A    between atoms: _344  and  _347
REMARK  148  A    between atoms: _347  and  _348
REMARK  149  A    between atoms: _351  and  _353
REMARK  150  A    between atoms: _353  and  _354
REMARK  151  A    between atoms: _353  and  _356
REMARK  152  A    between atoms: _356  and  _357
REMARK  153  A    between atoms: _359  and  _361
REMARK  154  A    between atoms: _361  and  _362
REMARK  155  A    between atoms: _361  and  _364
REMARK  156  A    between atoms: _364  and  _365
REMARK  157  A    between atoms: _368  and  _370
REMARK  158  A    between atoms: _370  and  _371
REMARK  159  A    between atoms: _370  and  _373
REMARK  160  A    between atoms: _376  and  _378
REMARK  161  A    between atoms: _378  and  _379
REMARK  162  A    between atoms: _382  and  _384
REMARK  163  A    between atoms: _384  and  _385
REMARK  164  A    between atoms: _384  and  _387
REMARK  165  A    between atoms: _387  and  _388
REMARK  166  A    between atoms: _391  and  _393
REMARK  167  A    between atoms: _393  and  _394
REMARK  168  A    between atoms: _393  and  _396
REMARK  169  A    between atoms: _396  and  _397
REMARK  170  A    between atoms: _399  and  _401
REMARK  171  A    between atoms: _401  and  _402
REMARK  172  A    between atoms: _401  and  _404
REMARK  173  A    between atoms: _404  and  _405
REMARK  174  A    between atoms: _410  and  _412
REMARK  175  A    between atoms: _412  and  _413
REMARK  176  A    between atoms: _412  and  _415
REMARK  177  A    between atoms: _415  and  _416
REMARK  178  A    between atoms: _418  and  _420
REMARK  179  A    between atoms: _420  and  _421
REMARK  180  A    between atoms: _420  and  _423
REMARK  181  A    between atoms: _423  and  _424
REMARK  182  A    between atoms: _430  and  _432
REMARK  183  A    between atoms: _432  and  _433
REMARK  184  A    between atoms: _432  and  _435
REMARK  185  A    between atoms: _435  and  _436
REMARK  186  A    between atoms: _439  and  _441
REMARK  187  A    between atoms: _441  and  _442
REMARK  188  A    between atoms: _441  and  _444
REMARK  189  A    between atoms: _444  and  _445
REMARK  190  A    between atoms: _448  and  _450
REMARK  191  A    between atoms: _450  and  _451
REMARK  192  A    between atoms: _454  and  _456
REMARK  193  A    between atoms: _456  and  _457
REMARK  194  A    between atoms: _456  and  _459
REMARK  195  A    between atoms: _459  and  _460
REMARK  196  A    between atoms: _463  and  _465
REMARK  197  A    between atoms: _465  and  _466
REMARK  198  A    between atoms: _465  and  _468
REMARK  199  A    between atoms: _471  and  _473
REMARK  200  A    between atoms: _473  and  _474
REMARK  201  A    between atoms: _477  and  _479
REMARK  202  A    between atoms: _479  and  _480
REMARK  203  A    between atoms: _479  and  _482
REMARK  204  A    between atoms: _482  and  _483
REMARK  205  A    between atoms: _489  and  _491
REMARK  206  A    between atoms: _491  and  _492
REMARK  207  A    between atoms: _491  and  _494
REMARK  208  A    between atoms: _494  and  _495
REMARK  209  A    between atoms: _500  and  _501
REMARK  210  A    between atoms: _503  and  _505
REMARK  211  A    between atoms: _505  and  _506
REMARK  212  A    between atoms: _505  and  _508
REMARK  213  A    between atoms: _508  and  _509
REMARK  214  A    between atoms: _513  and  _514
REMARK                            x       y       z     vdW  Elec       q    Type
REMARK                         _______ _______ _______ _____ _____    ______ ____
ROOT
ATOM      1  O   HOH     1      60.510  68.431  29.570  0.00  0.00    +0.000 OA
ENDROOT
TORSDOF 0
REMARK  Name = ../refined-set-2016/1y6r/1y6r_pocket.pdb
REMARK  214 active torsions:
REMARK  status: ('A' for Active; 'I' for Inactive)
REMARK    1  A    between atoms: _1  and  _3
REMARK    2  A    between atoms: _3  and  _4
REMARK    3  A    between atoms: _6  and  _8
REMARK    4  A    between atoms: _8  and  _9
REMARK    5  A    between atoms: _12  and  _14
REMARK    6  A    between atoms: _14  and  _15
REMARK    7  A    between atoms: _14  and  _17
REMARK    8  A    between atoms: _17  and  _18
REMARK    9  A    between atoms: _18  and  _19
REMARK   10  A    between atoms: _21  and  _23
REMARK   11  A    between atoms: _23  and  _24
REMARK   12  A    between atoms: _23  and  _26
REMARK   13  A    between atoms: _26  and  _27
REMARK   14  A    between atoms: _27  and  _28
REMARK   15  A    between atoms: _31  and  _33
REMARK   16  A    between atoms: _33  and  _34
REMARK   17  A    between atoms: _33  and  _36
REMARK   18  A    between atoms: _36  and  _37
REMARK   19  A    between atoms: _39  and  _41
REMARK   20  A    between atoms: _41  and  _42
REMARK   21  A    between atoms: _44  and  _46
REMARK   22  A    between atoms: _46  and  _47
REMARK   23  A    between atoms: _46  and  _49
REMARK   24  A    between atoms: _49  and  _50
REMARK   25  A    between atoms: _53  and  _55
REMARK   26  A    between atoms: _55  and  _56
REMARK   27  A    between atoms: _58  and  _60
REMARK   28  A    between atoms: _60  and  _61
REMARK   29  A    between atoms: _60  and  _63
REMARK   30  A    between atoms: _63  and  _64
REMARK   31  A    between atoms: _64  and  _65
REMARK   32  A    between atoms: _65  and  _66
REMARK   33  A    between atoms: _66  and  _67
REMARK   34  A    between atoms: _71  and  _73
REMARK   35  A    between atoms: _73  and  _74
REMARK   36  A    between atoms: _77  and  _79
REMARK   37  A    between atoms: _79  and  _80
REMARK   38  A    between atoms: _83  and  _85
REMARK   39  A    between atoms: _85  and  _86
REMARK   40  A    between atoms: _85  and  _88
REMARK   41  A    between atoms: _88  and  _89
REMARK   42  A    between atoms: _94  and  _96
REMARK   43  A    between atoms: _96  and  _97
REMARK   44  A    between atoms: _96  and  _99
REMARK   45  A    between atoms: _99  and  _100
REMARK   46  A    between atoms: _103  and  _105
REMARK   47  A    between atoms: _105  and  _106
REMARK   48  A    between atoms: _108  and  _110
REMARK   49  A    between atoms: _110  and  _111
REMARK   50  A    between atoms: _110  and  _113
REMARK   51  A    between atoms: _113  and  _114
REMARK   52  A    between atoms: _116  and  _118
REMARK   53  A    between atoms: _118  and  _119
REMARK   54  A    between atoms: _122  and  _124
REMARK   55  A    between atoms: _124  and  _125
REMARK   56  A    between atoms: _127  and  _129
REMARK   57  A    between atoms: _129  and  _130
REMARK   58  A    between atoms: _132  and  _134
REMARK   59  A    between atoms: _134  and  _135
REMARK   60  A    between atoms: _134  and  _137
REMARK   61  A    between atoms: _137  and  _138
REMARK   62  A    between atoms: _141  and  _143
REMARK   63  A    between atoms: _143  and  _144
REMARK   64  A    between atoms: _143  and  _146
REMARK   65  A    between atoms: _146  and  _147
REMARK   66  A    between atoms: _152  and  _154
REMARK   67  A    between atoms: _154  and  _155
REMARK   68  A    between atoms: _154  and  _157
REMARK   69  A    between atoms: _157  and  _158
REMARK   70  A    between atoms: _161  and  _163
REMARK   71  A    between atoms: _163  and  _164
REMARK   72  A    between atoms: _163  and  _166
REMARK   73  A    between atoms: _169  and  _171
REMARK   74  A    between atoms: _171  and  _172
REMARK   75  A    between atoms: _171  and  _174
REMARK   76  A    between atoms: _174  and  _175
REMARK   77  A    between atoms: _177  and  _179
REMARK   78  A    between atoms: _179  and  _180
REMARK   79  A    between atoms: _182  and  _184
REMARK   80  A    between atoms: _184  and  _185
REMARK   81  A    between atoms: _184  and  _187
REMARK   82  A    between atoms: _187  and  _188
REMARK   83  A    between atoms: _191  and  _193
REMARK   84  A    between atoms: _193  and  _194
REMARK   85  A    between atoms: _197  and  _199
REMARK   86  A    between atoms: _199  and  _200
REMARK   87  A    between atoms: _199  and  _202
REMARK   88  A    between atoms: _202  and  _203
REMARK   89  A    between atoms: _209  and  _211
REMARK   90  A    between atoms: _211  and  _212
REMARK   91  A    between atoms: _211  and  _214
REMARK   92  A    between atoms: _214  and  _215
REMARK   93  A    between atoms: _218  and  _220
REMARK   94  A    between atoms: _220  and  _221
REMARK   95  A    between atoms: _220  and  _223
REMARK   96  A    between atoms: _223  and  _224
REMARK   97  A    between atoms: _229  and  _231
REMARK   98  A    between atoms: _231  and  _232
REMARK   99  A    between atoms: _234  and  _236
REMARK  100  A    between atoms: _236  and  _237
REMARK  101  A    between atoms: _236  and  _239
REMARK  102  A    between atoms: _239  and  _240
REMARK  103  A    between atoms: _243  and  _245
REMARK  104  A    between atoms: _245  and  _246
REMARK  105  A    between atoms: _245  and  _248
REMARK  106  A    between atoms: _248  and  _249
REMARK  107  A    between atoms: _252  and  _254
REMARK  108  A    between atoms: _254  and  _255
REMARK  109  A    between atoms: _258  and  _260
REMARK  110  A    between atoms: _260  and  _261
REMARK  111  A    between atoms: _260  and  _263
REMARK  112  A    between atoms: _266  and  _268
REMARK  113  A    between atoms: _268  and  _269
REMARK  114  A    between atoms: _268  and  _271
REMARK  115  A    between atoms: _271  and  _272
REMARK  116  A    between atoms: _272  and  _273
REMARK  117  A    between atoms: _276  and  _278
REMARK  118  A    between atoms: _278  and  _279
REMARK  119  A    between atoms: _278  and  _281
REMARK  120  A    between atoms: _281  and  _282
REMARK  121  A    between atoms: _282  and  _283
REMARK  122  A    between atoms: _285  and  _287
REMARK  123  A    between atoms: _287  and  _288
REMARK  124  A    between atoms: _287  and  _290
REMARK  125  A    between atoms: _290  and  _291
REMARK  126  A    between atoms: _291  and  _292
REMARK  127  A    between atoms: _295  and  _297
REMARK  128  A    between atoms: _297  and  _298
REMARK  129  A    between atoms: _301  and  _303
REMARK  130  A    between atoms: _303  and  _304
REMARK  131  A    between atoms: _303  and  _306
REMARK  132  A    between atoms: _306  and  _307
REMARK  133  A    between atoms: _310  and  _312
REMARK  134  A    between atoms: _312  and  _313
REMARK  135  A    between atoms: _312  and  _315
REMARK  136  A    between atoms: _315  and  _316
REMARK  137  A    between atoms: _319  and  _321
REMARK  138  A    between atoms: _321  and  _322
REMARK  139  A    between atoms: _321  and  _324
REMARK  140  A    between atoms: _324  and  _325
REMARK  141  A    between atoms: _325  and  _326
REMARK  142  A    between atoms: _326  and  _327
REMARK  143  A    between atoms: _336  and  _338
REMARK  144  A    between atoms: _338  and  _339
REMARK  145  A    between atoms: _342  and  _344
REMARK  146  A    between atoms: _344  and  _345
REMARK  147  A    between atoms: _344  and  _347
REMARK  148  A    between atoms: _347  and  _348
REMARK  149  A    between atoms: _351  and  _353
REMARK  150  A    between atoms: _353  and  _354
REMARK  151  A    between atoms: _353  and  _356
REMARK  152  A    between atoms: _356  and  _357
REMARK  153  A    between atoms: _359  and  _361
REMARK  154  A    between atoms: _361  and  _362
REMARK  155  A    between atoms: _361  and  _364
REMARK  156  A    between atoms: _364  and  _365
REMARK  157  A    between atoms: _368  and  _370
REMARK  158  A    between atoms: _370  and  _371
REMARK  159  A    between atoms: _370  and  _373
REMARK  160  A    between atoms: _376  and  _378
REMARK  161  A    between atoms: _378  and  _379
REMARK  162  A    between atoms: _382  and  _384
REMARK  163  A    between atoms: _384  and  _385
REMARK  164  A    between atoms: _384  and  _387
REMARK  165  A    between atoms: _387  and  _388
REMARK  166  A    between atoms: _391  and  _393
REMARK  167  A    between atoms: _393  and  _394
REMARK  168  A    between atoms: _393  and  _396
REMARK  169  A    between atoms: _396  and  _397
REMARK  170  A    between atoms: _399  and  _401
REMARK  171  A    between atoms: _401  and  _402
REMARK  172  A    between atoms: _401  and  _404
REMARK  173  A    between atoms: _404  and  _405
REMARK  174  A    between atoms: _410  and  _412
REMARK  175  A    between atoms: _412  and  _413
REMARK  176  A    between atoms: _412  and  _415
REMARK  177  A    between atoms: _415  and  _416
REMARK  178  A    between atoms: _418  and  _420
REMARK  179  A    between atoms: _420  and  _421
REMARK  180  A    between atoms: _420  and  _423
REMARK  181  A    between atoms: _423  and  _424
REMARK  182  A    between atoms: _430  and  _432
REMARK  183  A    between atoms: _432  and  _433
REMARK  184  A    between atoms: _432  and  _435
REMARK  185  A    between atoms: _435  and  _436
REMARK  186  A    between atoms: _439  and  _441
REMARK  187  A    between atoms: _441  and  _442
REMARK  188  A    between atoms: _441  and  _444
REMARK  189  A    between atoms: _444  and  _445
REMARK  190  A    between atoms: _448  and  _450
REMARK  191  A    between atoms: _450  and  _451
REMARK  192  A    between atoms: _454  and  _456
REMARK  193  A    between atoms: _456  and  _457
REMARK  194  A    between atoms: _456  and  _459
REMARK  195  A    between atoms: _459  and  _460
REMARK  196  A    between atoms: _463  and  _465
REMARK  197  A    between atoms: _465  and  _466
REMARK  198  A    between atoms: _465  and  _468
REMARK  199  A    between atoms: _471  and  _473
REMARK  200  A    between atoms: _473  and  _474
REMARK  201  A    between atoms: _477  and  _479
REMARK  202  A    between atoms: _479  and  _480
REMARK  203  A    between atoms: _479  and  _482
REMARK  204  A    between atoms: _482  and  _483
REMARK  205  A    between atoms: _489  and  _491
REMARK  206  A    between atoms: _491  and  _492
REMARK  207  A    between atoms: _491  and  _494
REMARK  208  A    between atoms: _494  and  _495
REMARK  209  A    between atoms: _500  and  _501
REMARK  210  A    between atoms: _503  and  _505
REMARK  211  A    between atoms: _505  and  _506
REMARK  212  A    between atoms: _505  and  _508
REMARK  213  A    between atoms: _508  and  _509
REMARK  214  A    between atoms: _513  and  _514
REMARK                            x       y       z     vdW  Elec       q    Type
REMARK                         _______ _______ _______ _____ _____    ______ ____
ROOT
ATOM      1  O   HOH     1      47.931  69.929  23.190  0.00  0.00    +0.000 OA
ENDROOT
TORSDOF 0
