REMARK  Name = ../refined-set-2016/3c52/3c52_pocket.pdb
REMARK  179 active torsions:
REMARK  status: ('A' for Active; 'I' for Inactive)
REMARK    1  A    between atoms: _1  and  _3
REMARK    2  A    between atoms: _3  and  _4
REMARK    3  A    between atoms: _7  and  _9
REMARK    4  A    between atoms: _9  and  _10
REMARK    5  A    between atoms: _9  and  _12
REMARK    6  A    between atoms: _12  and  _13
REMARK    7  A    between atoms: _19  and  _21
REMARK    8  A    between atoms: _21  and  _22
REMARK    9  A    between atoms: _21  and  _24
REMARK   10  A    between atoms: _24  and  _25
REMARK   11  A    between atoms: _30  and  _32
REMARK   12  A    between atoms: _32  and  _33
REMARK   13  A    between atoms: _32  and  _35
REMARK   14  A    between atoms: _35  and  _36
REMARK   15  A    between atoms: _36  and  _37
REMARK   16  A    between atoms: _42  and  _44
REMARK   17  A    between atoms: _44  and  _45
REMARK   18  A    between atoms: _44  and  _47
REMARK   19  A    between atoms: _47  and  _48
REMARK   20  A    between atoms: _50  and  _52
REMARK   21  A    between atoms: _52  and  _53
REMARK   22  A    between atoms: _52  and  _55
REMARK   23  A    between atoms: _55  and  _56
REMARK   24  A    between atoms: _61  and  _63
REMARK   25  A    between atoms: _63  and  _64
REMARK   26  A    between atoms: _63  and  _66
REMARK   27  A    between atoms: _66  and  _67
REMARK   28  A    between atoms: _70  and  _72
REMARK   29  A    between atoms: _72  and  _73
REMARK   30  A    between atoms: _72  and  _75
REMARK   31  A    between atoms: _75  and  _76
REMARK   32  A    between atoms: _79  and  _81
REMARK   33  A    between atoms: _81  and  _82
REMARK   34  A    between atoms: _81  and  _84
REMARK   35  A    between atoms: _84  and  _85
REMARK   36  A    between atoms: _89  and  ZN_421
REMARK   37  A    between atoms: _90  and  _92
REMARK   38  A    between atoms: _92  and  _93
REMARK   39  A    between atoms: _92  and  _95
REMARK   40  A    between atoms: _95  and  _96
REMARK   41  A    between atoms: _96  and  _97
REMARK   42  A    between atoms: _99  and  _101
REMARK   43  A    between atoms: _101  and  _102
REMARK   44  A    between atoms: _101  and  _104
REMARK   45  A    between atoms: _104  and  _105
REMARK   46  A    between atoms: _108  and  _110
REMARK   47  A    between atoms: _110  and  _111
REMARK   48  A    between atoms: _110  and  _113
REMARK   49  A    between atoms: _113  and  _114
REMARK   50  A    between atoms: _114  and  _115
REMARK   51  A    between atoms: _118  and  _120
REMARK   52  A    between atoms: _120  and  _121
REMARK   53  A    between atoms: _120  and  _123
REMARK   54  A    between atoms: _123  and  _124
REMARK   55  A    between atoms: _124  and  _125
REMARK   56  A    between atoms: _128  and  _130
REMARK   57  A    between atoms: _130  and  _131
REMARK   58  A    between atoms: _130  and  _133
REMARK   59  A    between atoms: _133  and  _134
REMARK   60  A    between atoms: _137  and  _139
REMARK   61  A    between atoms: _139  and  _140
REMARK   62  A    between atoms: _139  and  _142
REMARK   63  A    between atoms: _142  and  _143
REMARK   64  A    between atoms: _146  and  _148
REMARK   65  A    between atoms: _148  and  _149
REMARK   66  A    between atoms: _148  and  _151
REMARK   67  A    between atoms: _151  and  _152
REMARK   68  A    between atoms: _154  and  _156
REMARK   69  A    between atoms: _156  and  _157
REMARK   70  A    between atoms: _156  and  _159
REMARK   71  A    between atoms: _159  and  _160
REMARK   72  A    between atoms: _164  and  ZN_421
REMARK   73  A    between atoms: _165  and  _167
REMARK   74  A    between atoms: _167  and  _168
REMARK   75  A    between atoms: _170  and  _172
REMARK   76  A    between atoms: _172  and  _173
REMARK   77  A    between atoms: _176  and  _178
REMARK   78  A    between atoms: _178  and  _179
REMARK   79  A    between atoms: _178  and  _181
REMARK   80  A    between atoms: _181  and  _182
REMARK   81  A    between atoms: _188  and  _190
REMARK   82  A    between atoms: _190  and  _191
REMARK   83  A    between atoms: _190  and  _193
REMARK   84  A    between atoms: _193  and  _194
REMARK   85  A    between atoms: _194  and  _195
REMARK   86  A    between atoms: _195  and  _196
REMARK   87  A    between atoms: _196  and  _197
REMARK   88  A    between atoms: _201  and  _203
REMARK   89  A    between atoms: _203  and  _204
REMARK   90  A    between atoms: _203  and  _206
REMARK   91  A    between atoms: _209  and  _211
REMARK   92  A    between atoms: _211  and  _212
REMARK   93  A    between atoms: _211  and  _214
REMARK   94  A    between atoms: _214  and  _215
REMARK   95  A    between atoms: _218  and  _220
REMARK   96  A    between atoms: _220  and  _221
REMARK   97  A    between atoms: _220  and  _223
REMARK   98  A    between atoms: _223  and  _224
REMARK   99  A    between atoms: _225  and  ZN_421
REMARK  100  A    between atoms: _229  and  _231
REMARK  101  A    between atoms: _231  and  _232
REMARK  102  A    between atoms: _234  and  _236
REMARK  103  A    between atoms: _236  and  _237
REMARK  104  A    between atoms: _240  and  _242
REMARK  105  A    between atoms: _242  and  _243
REMARK  106  A    between atoms: _242  and  _245
REMARK  107  A    between atoms: _245  and  _246
REMARK  108  A    between atoms: _248  and  _250
REMARK  109  A    between atoms: _250  and  _251
REMARK  110  A    between atoms: _254  and  _256
REMARK  111  A    between atoms: _256  and  _257
REMARK  112  A    between atoms: _256  and  _259
REMARK  113  A    between atoms: _259  and  _260
REMARK  114  A    between atoms: _263  and  _265
REMARK  115  A    between atoms: _265  and  _266
REMARK  116  A    between atoms: _265  and  _268
REMARK  117  A    between atoms: _268  and  _269
REMARK  118  A    between atoms: _269  and  _270
REMARK  119  A    between atoms: _270  and  _271
REMARK  120  A    between atoms: _271  and  _272
REMARK  121  A    between atoms: _276  and  _278
REMARK  122  A    between atoms: _278  and  _279
REMARK  123  A    between atoms: _281  and  _283
REMARK  124  A    between atoms: _283  and  _284
REMARK  125  A    between atoms: _283  and  _286
REMARK  126  A    between atoms: _289  and  _291
REMARK  127  A    between atoms: _291  and  _292
REMARK  128  A    between atoms: _291  and  _294
REMARK  129  A    between atoms: _294  and  _295
REMARK  130  A    between atoms: _295  and  _296
REMARK  131  A    between atoms: _296  and  _297
REMARK  132  A    between atoms: _297  and  _298
REMARK  133  A    between atoms: _302  and  _304
REMARK  134  A    between atoms: _304  and  _305
REMARK  135  A    between atoms: _304  and  _307
REMARK  136  A    between atoms: _310  and  _312
REMARK  137  A    between atoms: _312  and  _313
REMARK  138  A    between atoms: _312  and  _315
REMARK  139  A    between atoms: _315  and  _316
REMARK  140  A    between atoms: _321  and  _323
REMARK  141  A    between atoms: _323  and  _324
REMARK  142  A    between atoms: _323  and  _326
REMARK  143  A    between atoms: _326  and  _327
REMARK  144  A    between atoms: _330  and  _332
REMARK  145  A    between atoms: _332  and  _333
REMARK  146  A    between atoms: _332  and  _335
REMARK  147  A    between atoms: _335  and  _336
REMARK  148  A    between atoms: _339  and  _341
REMARK  149  A    between atoms: _341  and  _342
REMARK  150  A    between atoms: _341  and  _344
REMARK  151  A    between atoms: _344  and  _345
REMARK  152  A    between atoms: _348  and  _350
REMARK  153  A    between atoms: _350  and  _351
REMARK  154  A    between atoms: _350  and  _353
REMARK  155  A    between atoms: _353  and  _354
REMARK  156  A    between atoms: _357  and  _359
REMARK  157  A    between atoms: _359  and  _360
REMARK  158  A    between atoms: _359  and  _362
REMARK  159  A    between atoms: _362  and  _363
REMARK  160  A    between atoms: _366  and  _368
REMARK  161  A    between atoms: _368  and  _369
REMARK  162  A    between atoms: _368  and  _371
REMARK  163  A    between atoms: _371  and  _372
REMARK  164  A    between atoms: _372  and  _373
REMARK  165  A    between atoms: _373  and  _374
REMARK  166  A    between atoms: _383  and  _385
REMARK  167  A    between atoms: _385  and  _386
REMARK  168  A    between atoms: _385  and  _388
REMARK  169  A    between atoms: _388  and  _389
REMARK  170  A    between atoms: _392  and  _394
REMARK  171  A    between atoms: _394  and  _395
REMARK  172  A    between atoms: _394  and  _397
REMARK  173  A    between atoms: _397  and  _398
REMARK  174  A    between atoms: _398  and  _399
REMARK  175  A    between atoms: _399  and  _400
REMARK  176  A    between atoms: _409  and  _411
REMARK  177  A    between atoms: _411  and  _412
REMARK  178  A    between atoms: _411  and  _414
REMARK  179  A    between atoms: _414  and  _415
REMARK                            x       y       z     vdW  Elec       q    Type
REMARK                         _______ _______ _______ _____ _____    ______ ____
ROOT
ATOM      1  CA  PHE A   2      -2.360  -1.908  10.918  0.00  0.00    +0.153 C 
ENDROOT
BRANCH   1   3
ATOM      2  C   ALA A   1      -2.511  -2.649   8.621  0.00  0.00    +0.238 C 
ATOM      3  N   PHE A   2      -2.614  -2.922   9.911  0.00  0.00    -0.297 N 
ATOM      4  H   PHE A   2      -2.882  -3.881  10.210  0.00  0.00    +0.150 HD
ATOM      5  O   ALA A   1      -2.092  -1.569   8.191  0.00  0.00    -0.274 OA
BRANCH   2   6
ATOM      6  CA  ALA A   1      -2.978  -3.739   7.674  0.00  0.00    +0.145 C 
ATOM      7  CB  ALA A   1      -1.923  -4.037   6.655  0.00  0.00    +0.028 C 
BRANCH   6   8
ATOM      8  N   ALA A   1      -4.164  -3.185   7.050  0.00  0.00    -0.238 NA
ATOM      9  H   ALA A   1      -4.060  -2.417   6.357  0.00  0.00    +0.142 HD
ENDBRANCH   6   8
ENDBRANCH   2   6
ENDBRANCH   1   3
BRANCH   1  10
ATOM     10  C   PHE A   2      -1.087  -2.201  11.700  0.00  0.00    +0.241 C 
ATOM     11  O   PHE A   2      -0.913  -3.288  12.250  0.00  0.00    -0.273 OA
ATOM     12  N   ASN A   3      -0.195  -1.221  11.712  0.00  0.00    -0.298 N 
ATOM     13  H   ASN A   3      -0.410  -0.337  11.208  0.00  0.00    +0.150 HD
BRANCH  12  14
ATOM     14  CA  ASN A   3       1.070  -1.344  12.406  0.00  0.00    +0.146 C 
BRANCH  14  15
ATOM     15  C   ASN A   3       0.932  -1.106  13.892  0.00  0.00    +0.227 C 
ATOM     16  O   ASN A   3       0.084  -0.329  14.322  0.00  0.00    -0.286 OA
ENDBRANCH  14  15
BRANCH  14  17
ATOM     17  CB  ASN A   3       2.066  -0.335  11.862  0.00  0.00    +0.112 C 
BRANCH  17  18
ATOM     18  CG  ASN A   3       2.580  -0.711  10.510  0.00  0.00    +0.222 C 
ATOM     19  ND2 ASN A   3       3.839  -1.131  10.454  0.00  0.00    -0.329 N 
ATOM     20 HD21 ASN A   3       4.408  -1.187  11.323  0.00  0.00    +0.145 HD
ATOM     21 HD22 ASN A   3       4.256  -1.404   9.541  0.00  0.00    +0.145 HD
ATOM     22  OD1 ASN A   3       1.857  -0.623   9.515  0.00  0.00    -0.275 OA
ENDBRANCH  17  18
ENDBRANCH  14  17
ENDBRANCH  12  14
ENDBRANCH   1  10
BRANCH   1  23
ATOM     23  CB  PHE A   2      -3.563  -1.781  11.837  0.00  0.00    +0.055 C 
BRANCH  23  24
ATOM     24  CG  PHE A   2      -4.843  -1.543  11.107  0.00  0.00    -0.020 A 
ATOM     25  CD2 PHE A   2      -5.726  -2.582  10.887  0.00  0.00    -0.004 A 
ATOM     26  CE2 PHE A   2      -6.921  -2.374  10.235  0.00  0.00    -0.000 A 
ATOM     27  CZ  PHE A   2      -7.235  -1.114   9.776  0.00  0.00    -0.000 A 
ATOM     28  CE1 PHE A   2      -6.360  -0.065   9.980  0.00  0.00    -0.000 A 
ATOM     29  CD1 PHE A   2      -5.166  -0.280  10.639  0.00  0.00    -0.004 A 
ENDBRANCH  23  24
ENDBRANCH   1  23
TORSDOF 10
REMARK  Name = ../refined-set-2016/3c52/3c52_pocket.pdb
REMARK  179 active torsions:
REMARK  status: ('A' for Active; 'I' for Inactive)
REMARK    1  A    between atoms: _1  and  _3
REMARK    2  A    between atoms: _3  and  _4
REMARK    3  A    between atoms: _7  and  _9
REMARK    4  A    between atoms: _9  and  _10
REMARK    5  A    between atoms: _9  and  _12
REMARK    6  A    between atoms: _12  and  _13
REMARK    7  A    between atoms: _19  and  _21
REMARK    8  A    between atoms: _21  and  _22
REMARK    9  A    between atoms: _21  and  _24
REMARK   10  A    between atoms: _24  and  _25
REMARK   11  A    between atoms: _30  and  _32
REMARK   12  A    between atoms: _32  and  _33
REMARK   13  A    between atoms: _32  and  _35
REMARK   14  A    between atoms: _35  and  _36
REMARK   15  A    between atoms: _36  and  _37
REMARK   16  A    between atoms: _42  and  _44
REMARK   17  A    between atoms: _44  and  _45
REMARK   18  A    between atoms: _44  and  _47
REMARK   19  A    between atoms: _47  and  _48
REMARK   20  A    between atoms: _50  and  _52
REMARK   21  A    between atoms: _52  and  _53
REMARK   22  A    between atoms: _52  and  _55
REMARK   23  A    between atoms: _55  and  _56
REMARK   24  A    between atoms: _61  and  _63
REMARK   25  A    between atoms: _63  and  _64
REMARK   26  A    between atoms: _63  and  _66
REMARK   27  A    between atoms: _66  and  _67
REMARK   28  A    between atoms: _70  and  _72
REMARK   29  A    between atoms: _72  and  _73
REMARK   30  A    between atoms: _72  and  _75
REMARK   31  A    between atoms: _75  and  _76
REMARK   32  A    between atoms: _79  and  _81
REMARK   33  A    between atoms: _81  and  _82
REMARK   34  A    between atoms: _81  and  _84
REMARK   35  A    between atoms: _84  and  _85
REMARK   36  A    between atoms: _89  and  ZN_421
REMARK   37  A    between atoms: _90  and  _92
REMARK   38  A    between atoms: _92  and  _93
REMARK   39  A    between atoms: _92  and  _95
REMARK   40  A    between atoms: _95  and  _96
REMARK   41  A    between atoms: _96  and  _97
REMARK   42  A    between atoms: _99  and  _101
REMARK   43  A    between atoms: _101  and  _102
REMARK   44  A    between atoms: _101  and  _104
REMARK   45  A    between atoms: _104  and  _105
REMARK   46  A    between atoms: _108  and  _110
REMARK   47  A    between atoms: _110  and  _111
REMARK   48  A    between atoms: _110  and  _113
REMARK   49  A    between atoms: _113  and  _114
REMARK   50  A    between atoms: _114  and  _115
REMARK   51  A    between atoms: _118  and  _120
REMARK   52  A    between atoms: _120  and  _121
REMARK   53  A    between atoms: _120  and  _123
REMARK   54  A    between atoms: _123  and  _124
REMARK   55  A    between atoms: _124  and  _125
REMARK   56  A    between atoms: _128  and  _130
REMARK   57  A    between atoms: _130  and  _131
REMARK   58  A    between atoms: _130  and  _133
REMARK   59  A    between atoms: _133  and  _134
REMARK   60  A    between atoms: _137  and  _139
REMARK   61  A    between atoms: _139  and  _140
REMARK   62  A    between atoms: _139  and  _142
REMARK   63  A    between atoms: _142  and  _143
REMARK   64  A    between atoms: _146  and  _148
REMARK   65  A    between atoms: _148  and  _149
REMARK   66  A    between atoms: _148  and  _151
REMARK   67  A    between atoms: _151  and  _152
REMARK   68  A    between atoms: _154  and  _156
REMARK   69  A    between atoms: _156  and  _157
REMARK   70  A    between atoms: _156  and  _159
REMARK   71  A    between atoms: _159  and  _160
REMARK   72  A    between atoms: _164  and  ZN_421
REMARK   73  A    between atoms: _165  and  _167
REMARK   74  A    between atoms: _167  and  _168
REMARK   75  A    between atoms: _170  and  _172
REMARK   76  A    between atoms: _172  and  _173
REMARK   77  A    between atoms: _176  and  _178
REMARK   78  A    between atoms: _178  and  _179
REMARK   79  A    between atoms: _178  and  _181
REMARK   80  A    between atoms: _181  and  _182
REMARK   81  A    between atoms: _188  and  _190
REMARK   82  A    between atoms: _190  and  _191
REMARK   83  A    between atoms: _190  and  _193
REMARK   84  A    between atoms: _193  and  _194
REMARK   85  A    between atoms: _194  and  _195
REMARK   86  A    between atoms: _195  and  _196
REMARK   87  A    between atoms: _196  and  _197
REMARK   88  A    between atoms: _201  and  _203
REMARK   89  A    between atoms: _203  and  _204
REMARK   90  A    between atoms: _203  and  _206
REMARK   91  A    between atoms: _209  and  _211
REMARK   92  A    between atoms: _211  and  _212
REMARK   93  A    between atoms: _211  and  _214
REMARK   94  A    between atoms: _214  and  _215
REMARK   95  A    between atoms: _218  and  _220
REMARK   96  A    between atoms: _220  and  _221
REMARK   97  A    between atoms: _220  and  _223
REMARK   98  A    between atoms: _223  and  _224
REMARK   99  A    between atoms: _225  and  ZN_421
REMARK  100  A    between atoms: _229  and  _231
REMARK  101  A    between atoms: _231  and  _232
REMARK  102  A    between atoms: _234  and  _236
REMARK  103  A    between atoms: _236  and  _237
REMARK  104  A    between atoms: _240  and  _242
REMARK  105  A    between atoms: _242  and  _243
REMARK  106  A    between atoms: _242  and  _245
REMARK  107  A    between atoms: _245  and  _246
REMARK  108  A    between atoms: _248  and  _250
REMARK  109  A    between atoms: _250  and  _251
REMARK  110  A    between atoms: _254  and  _256
REMARK  111  A    between atoms: _256  and  _257
REMARK  112  A    between atoms: _256  and  _259
REMARK  113  A    between atoms: _259  and  _260
REMARK  114  A    between atoms: _263  and  _265
REMARK  115  A    between atoms: _265  and  _266
REMARK  116  A    between atoms: _265  and  _268
REMARK  117  A    between atoms: _268  and  _269
REMARK  118  A    between atoms: _269  and  _270
REMARK  119  A    between atoms: _270  and  _271
REMARK  120  A    between atoms: _271  and  _272
REMARK  121  A    between atoms: _276  and  _278
REMARK  122  A    between atoms: _278  and  _279
REMARK  123  A    between atoms: _281  and  _283
REMARK  124  A    between atoms: _283  and  _284
REMARK  125  A    between atoms: _283  and  _286
REMARK  126  A    between atoms: _289  and  _291
REMARK  127  A    between atoms: _291  and  _292
REMARK  128  A    between atoms: _291  and  _294
REMARK  129  A    between atoms: _294  and  _295
REMARK  130  A    between atoms: _295  and  _296
REMARK  131  A    between atoms: _296  and  _297
REMARK  132  A    between atoms: _297  and  _298
REMARK  133  A    between atoms: _302  and  _304
REMARK  134  A    between atoms: _304  and  _305
REMARK  135  A    between atoms: _304  and  _307
REMARK  136  A    between atoms: _310  and  _312
REMARK  137  A    between atoms: _312  and  _313
REMARK  138  A    between atoms: _312  and  _315
REMARK  139  A    between atoms: _315  and  _316
REMARK  140  A    between atoms: _321  and  _323
REMARK  141  A    between atoms: _323  and  _324
REMARK  142  A    between atoms: _323  and  _326
REMARK  143  A    between atoms: _326  and  _327
REMARK  144  A    between atoms: _330  and  _332
REMARK  145  A    between atoms: _332  and  _333
REMARK  146  A    between atoms: _332  and  _335
REMARK  147  A    between atoms: _335  and  _336
REMARK  148  A    between atoms: _339  and  _341
REMARK  149  A    between atoms: _341  and  _342
REMARK  150  A    between atoms: _341  and  _344
REMARK  151  A    between atoms: _344  and  _345
REMARK  152  A    between atoms: _348  and  _350
REMARK  153  A    between atoms: _350  and  _351
REMARK  154  A    between atoms: _350  and  _353
REMARK  155  A    between atoms: _353  and  _354
REMARK  156  A    between atoms: _357  and  _359
REMARK  157  A    between atoms: _359  and  _360
REMARK  158  A    between atoms: _359  and  _362
REMARK  159  A    between atoms: _362  and  _363
REMARK  160  A    between atoms: _366  and  _368
REMARK  161  A    between atoms: _368  and  _369
REMARK  162  A    between atoms: _368  and  _371
REMARK  163  A    between atoms: _371  and  _372
REMARK  164  A    between atoms: _372  and  _373
REMARK  165  A    between atoms: _373  and  _374
REMARK  166  A    between atoms: _383  and  _385
REMARK  167  A    between atoms: _385  and  _386
REMARK  168  A    between atoms: _385  and  _388
REMARK  169  A    between atoms: _388  and  _389
REMARK  170  A    between atoms: _392  and  _394
REMARK  171  A    between atoms: _394  and  _395
REMARK  172  A    between atoms: _394  and  _397
REMARK  173  A    between atoms: _397  and  _398
REMARK  174  A    between atoms: _398  and  _399
REMARK  175  A    between atoms: _399  and  _400
REMARK  176  A    between atoms: _409  and  _411
REMARK  177  A    between atoms: _411  and  _412
REMARK  178  A    between atoms: _411  and  _414
REMARK  179  A    between atoms: _414  and  _415
REMARK                            x       y       z     vdW  Elec       q    Type
REMARK                         _______ _______ _______ _____ _____    ______ ____
ROOT
ATOM      1  CB  GLN A   1       2.014  -5.363   9.644  0.00  0.00    +0.035 C 
ENDROOT
BRANCH   1   2
ATOM      2  CA  GLN A   1       1.939  -5.695  11.129  0.00  0.00    +0.134 C 
BRANCH   2   3
ATOM      3  N   GLN A   1       0.561  -5.735  11.592  0.00  0.00    -0.239 NA
ATOM      4  H   GLN A   1       0.055  -4.858  11.831  0.00  0.00    +0.142 HD
ENDBRANCH   2   3
BRANCH   2   5
ATOM      5  C   GLN A   1       2.937  -4.853  11.932  0.00  0.00    +0.224 C 
ATOM      6  O   GLN A   1       2.614  -3.792  12.482  0.00  0.00    -0.287 OA
ENDBRANCH   2   5
ENDBRANCH   1   2
BRANCH   1   7
ATOM      7  CG  GLN A   1       1.322  -4.101   9.230  0.00  0.00    +0.087 C 
BRANCH   7   8
ATOM      8  CD  GLN A   1       1.486  -3.843   7.746  0.00  0.00    +0.219 C 
ATOM      9  NE2 GLN A   1       1.655  -2.583   7.384  0.00  0.00    -0.329 N 
ATOM     10 HE21 GLN A   1       1.667  -1.832   8.104  0.00  0.00    +0.145 HD
ATOM     11 HE22 GLN A   1       1.776  -2.342   6.380  0.00  0.00    +0.145 HD
ATOM     12  OE1 GLN A   1       1.464  -4.769   6.937  0.00  0.00    -0.275 OA
ENDBRANCH   7   8
ENDBRANCH   1   7
TORSDOF 5
REMARK  Name = ../refined-set-2016/3c52/3c52_pocket.pdb
REMARK  179 active torsions:
REMARK  status: ('A' for Active; 'I' for Inactive)
REMARK    1  A    between atoms: _1  and  _3
REMARK    2  A    between atoms: _3  and  _4
REMARK    3  A    between atoms: _7  and  _9
REMARK    4  A    between atoms: _9  and  _10
REMARK    5  A    between atoms: _9  and  _12
REMARK    6  A    between atoms: _12  and  _13
REMARK    7  A    between atoms: _19  and  _21
REMARK    8  A    between atoms: _21  and  _22
REMARK    9  A    between atoms: _21  and  _24
REMARK   10  A    between atoms: _24  and  _25
REMARK   11  A    between atoms: _30  and  _32
REMARK   12  A    between atoms: _32  and  _33
REMARK   13  A    between atoms: _32  and  _35
REMARK   14  A    between atoms: _35  and  _36
REMARK   15  A    between atoms: _36  and  _37
REMARK   16  A    between atoms: _42  and  _44
REMARK   17  A    between atoms: _44  and  _45
REMARK   18  A    between atoms: _44  and  _47
REMARK   19  A    between atoms: _47  and  _48
REMARK   20  A    between atoms: _50  and  _52
REMARK   21  A    between atoms: _52  and  _53
REMARK   22  A    between atoms: _52  and  _55
REMARK   23  A    between atoms: _55  and  _56
REMARK   24  A    between atoms: _61  and  _63
REMARK   25  A    between atoms: _63  and  _64
REMARK   26  A    between atoms: _63  and  _66
REMARK   27  A    between atoms: _66  and  _67
REMARK   28  A    between atoms: _70  and  _72
REMARK   29  A    between atoms: _72  and  _73
REMARK   30  A    between atoms: _72  and  _75
REMARK   31  A    between atoms: _75  and  _76
REMARK   32  A    between atoms: _79  and  _81
REMARK   33  A    between atoms: _81  and  _82
REMARK   34  A    between atoms: _81  and  _84
REMARK   35  A    between atoms: _84  and  _85
REMARK   36  A    between atoms: _89  and  ZN_421
REMARK   37  A    between atoms: _90  and  _92
REMARK   38  A    between atoms: _92  and  _93
REMARK   39  A    between atoms: _92  and  _95
REMARK   40  A    between atoms: _95  and  _96
REMARK   41  A    between atoms: _96  and  _97
REMARK   42  A    between atoms: _99  and  _101
REMARK   43  A    between atoms: _101  and  _102
REMARK   44  A    between atoms: _101  and  _104
REMARK   45  A    between atoms: _104  and  _105
REMARK   46  A    between atoms: _108  and  _110
REMARK   47  A    between atoms: _110  and  _111
REMARK   48  A    between atoms: _110  and  _113
REMARK   49  A    between atoms: _113  and  _114
REMARK   50  A    between atoms: _114  and  _115
REMARK   51  A    between atoms: _118  and  _120
REMARK   52  A    between atoms: _120  and  _121
REMARK   53  A    between atoms: _120  and  _123
REMARK   54  A    between atoms: _123  and  _124
REMARK   55  A    between atoms: _124  and  _125
REMARK   56  A    between atoms: _128  and  _130
REMARK   57  A    between atoms: _130  and  _131
REMARK   58  A    between atoms: _130  and  _133
REMARK   59  A    between atoms: _133  and  _134
REMARK   60  A    between atoms: _137  and  _139
REMARK   61  A    between atoms: _139  and  _140
REMARK   62  A    between atoms: _139  and  _142
REMARK   63  A    between atoms: _142  and  _143
REMARK   64  A    between atoms: _146  and  _148
REMARK   65  A    between atoms: _148  and  _149
REMARK   66  A    between atoms: _148  and  _151
REMARK   67  A    between atoms: _151  and  _152
REMARK   68  A    between atoms: _154  and  _156
REMARK   69  A    between atoms: _156  and  _157
REMARK   70  A    between atoms: _156  and  _159
REMARK   71  A    between atoms: _159  and  _160
REMARK   72  A    between atoms: _164  and  ZN_421
REMARK   73  A    between atoms: _165  and  _167
REMARK   74  A    between atoms: _167  and  _168
REMARK   75  A    between atoms: _170  and  _172
REMARK   76  A    between atoms: _172  and  _173
REMARK   77  A    between atoms: _176  and  _178
REMARK   78  A    between atoms: _178  and  _179
REMARK   79  A    between atoms: _178  and  _181
REMARK   80  A    between atoms: _181  and  _182
REMARK   81  A    between atoms: _188  and  _190
REMARK   82  A    between atoms: _190  and  _191
REMARK   83  A    between atoms: _190  and  _193
REMARK   84  A    between atoms: _193  and  _194
REMARK   85  A    between atoms: _194  and  _195
REMARK   86  A    between atoms: _195  and  _196
REMARK   87  A    between atoms: _196  and  _197
REMARK   88  A    between atoms: _201  and  _203
REMARK   89  A    between atoms: _203  and  _204
REMARK   90  A    between atoms: _203  and  _206
REMARK   91  A    between atoms: _209  and  _211
REMARK   92  A    between atoms: _211  and  _212
REMARK   93  A    between atoms: _211  and  _214
REMARK   94  A    between atoms: _214  and  _215
REMARK   95  A    between atoms: _218  and  _220
REMARK   96  A    between atoms: _220  and  _221
REMARK   97  A    between atoms: _220  and  _223
REMARK   98  A    between atoms: _223  and  _224
REMARK   99  A    between atoms: _225  and  ZN_421
REMARK  100  A    between atoms: _229  and  _231
REMARK  101  A    between atoms: _231  and  _232
REMARK  102  A    between atoms: _234  and  _236
REMARK  103  A    between atoms: _236  and  _237
REMARK  104  A    between atoms: _240  and  _242
REMARK  105  A    between atoms: _242  and  _243
REMARK  106  A    between atoms: _242  and  _245
REMARK  107  A    between atoms: _245  and  _246
REMARK  108  A    between atoms: _248  and  _250
REMARK  109  A    between atoms: _250  and  _251
REMARK  110  A    between atoms: _254  and  _256
REMARK  111  A    between atoms: _256  and  _257
REMARK  112  A    between atoms: _256  and  _259
REMARK  113  A    between atoms: _259  and  _260
REMARK  114  A    between atoms: _263  and  _265
REMARK  115  A    between atoms: _265  and  _266
REMARK  116  A    between atoms: _265  and  _268
REMARK  117  A    between atoms: _268  and  _269
REMARK  118  A    between atoms: _269  and  _270
REMARK  119  A    between atoms: _270  and  _271
REMARK  120  A    between atoms: _271  and  _272
REMARK  121  A    between atoms: _276  and  _278
REMARK  122  A    between atoms: _278  and  _279
REMARK  123  A    between atoms: _281  and  _283
REMARK  124  A    between atoms: _283  and  _284
REMARK  125  A    between atoms: _283  and  _286
REMARK  126  A    between atoms: _289  and  _291
REMARK  127  A    between atoms: _291  and  _292
REMARK  128  A    between atoms: _291  and  _294
REMARK  129  A    between atoms: _294  and  _295
REMARK  130  A    between atoms: _295  and  _296
REMARK  131  A    between atoms: _296  and  _297
REMARK  132  A    between atoms: _297  and  _298
REMARK  133  A    between atoms: _302  and  _304
REMARK  134  A    between atoms: _304  and  _305
REMARK  135  A    between atoms: _304  and  _307
REMARK  136  A    between atoms: _310  and  _312
REMARK  137  A    between atoms: _312  and  _313
REMARK  138  A    between atoms: _312  and  _315
REMARK  139  A    between atoms: _315  and  _316
REMARK  140  A    between atoms: _321  and  _323
REMARK  141  A    between atoms: _323  and  _324
REMARK  142  A    between atoms: _323  and  _326
REMARK  143  A    between atoms: _326  and  _327
REMARK  144  A    between atoms: _330  and  _332
REMARK  145  A    between atoms: _332  and  _333
REMARK  146  A    between atoms: _332  and  _335
REMARK  147  A    between atoms: _335  and  _336
REMARK  148  A    between atoms: _339  and  _341
REMARK  149  A    between atoms: _341  and  _342
REMARK  150  A    between atoms: _341  and  _344
REMARK  151  A    between atoms: _344  and  _345
REMARK  152  A    between atoms: _348  and  _350
REMARK  153  A    between atoms: _350  and  _351
REMARK  154  A    between atoms: _350  and  _353
REMARK  155  A    between atoms: _353  and  _354
REMARK  156  A    between atoms: _357  and  _359
REMARK  157  A    between atoms: _359  and  _360
REMARK  158  A    between atoms: _359  and  _362
REMARK  159  A    between atoms: _362  and  _363
REMARK  160  A    between atoms: _366  and  _368
REMARK  161  A    between atoms: _368  and  _369
REMARK  162  A    between atoms: _368  and  _371
REMARK  163  A    between atoms: _371  and  _372
REMARK  164  A    between atoms: _372  and  _373
REMARK  165  A    between atoms: _373  and  _374
REMARK  166  A    between atoms: _383  and  _385
REMARK  167  A    between atoms: _385  and  _386
REMARK  168  A    between atoms: _385  and  _388
REMARK  169  A    between atoms: _388  and  _389
REMARK  170  A    between atoms: _392  and  _394
REMARK  171  A    between atoms: _394  and  _395
REMARK  172  A    between atoms: _394  and  _397
REMARK  173  A    between atoms: _397  and  _398
REMARK  174  A    between atoms: _398  and  _399
REMARK  175  A    between atoms: _399  and  _400
REMARK  176  A    between atoms: _409  and  _411
REMARK  177  A    between atoms: _411  and  _412
REMARK  178  A    between atoms: _411  and  _414
REMARK  179  A    between atoms: _414  and  _415
REMARK                            x       y       z     vdW  Elec       q    Type
REMARK                         _______ _______ _______ _____ _____    ______ ____
ROOT
ATOM      1  CA  SER A   1       8.165  -3.092  10.774  0.00  0.00    +0.163 C 
ENDROOT
BRANCH   1   2
ATOM      2  N   SER A   1       6.987  -3.365  11.589  0.00  0.00    -0.237 NA
ATOM      3  H   SER A   1       6.546  -2.581  12.110  0.00  0.00    +0.142 HD
ENDBRANCH   1   2
BRANCH   1   4
ATOM      4  CB  SER A   1       9.393  -3.660  11.470  0.00  0.00    +0.227 C 
ATOM      5  OG  SER A   1       9.312  -4.120  12.608  0.00  0.00    -0.287 OA
ENDBRANCH   1   4
BRANCH   1   6
ATOM      6  C   SER A   1       8.334  -1.590  10.633  0.00  0.00    +0.162 C 
BRANCH   6   7
ATOM      7  O   SER A   1       8.518  -0.998  11.915  0.00  0.00    -0.380 OA
ATOM      8  H   SER A   1       8.627  -0.019  11.813  0.00  0.00    +0.211 HD
ENDBRANCH   6   7
ENDBRANCH   1   6
TORSDOF 4
REMARK  Name = ../refined-set-2016/3c52/3c52_pocket.pdb
REMARK  179 active torsions:
REMARK  status: ('A' for Active; 'I' for Inactive)
REMARK    1  A    between atoms: _1  and  _3
REMARK    2  A    between atoms: _3  and  _4
REMARK    3  A    between atoms: _7  and  _9
REMARK    4  A    between atoms: _9  and  _10
REMARK    5  A    between atoms: _9  and  _12
REMARK    6  A    between atoms: _12  and  _13
REMARK    7  A    between atoms: _19  and  _21
REMARK    8  A    between atoms: _21  and  _22
REMARK    9  A    between atoms: _21  and  _24
REMARK   10  A    between atoms: _24  and  _25
REMARK   11  A    between atoms: _30  and  _32
REMARK   12  A    between atoms: _32  and  _33
REMARK   13  A    between atoms: _32  and  _35
REMARK   14  A    between atoms: _35  and  _36
REMARK   15  A    between atoms: _36  and  _37
REMARK   16  A    between atoms: _42  and  _44
REMARK   17  A    between atoms: _44  and  _45
REMARK   18  A    between atoms: _44  and  _47
REMARK   19  A    between atoms: _47  and  _48
REMARK   20  A    between atoms: _50  and  _52
REMARK   21  A    between atoms: _52  and  _53
REMARK   22  A    between atoms: _52  and  _55
REMARK   23  A    between atoms: _55  and  _56
REMARK   24  A    between atoms: _61  and  _63
REMARK   25  A    between atoms: _63  and  _64
REMARK   26  A    between atoms: _63  and  _66
REMARK   27  A    between atoms: _66  and  _67
REMARK   28  A    between atoms: _70  and  _72
REMARK   29  A    between atoms: _72  and  _73
REMARK   30  A    between atoms: _72  and  _75
REMARK   31  A    between atoms: _75  and  _76
REMARK   32  A    between atoms: _79  and  _81
REMARK   33  A    between atoms: _81  and  _82
REMARK   34  A    between atoms: _81  and  _84
REMARK   35  A    between atoms: _84  and  _85
REMARK   36  A    between atoms: _89  and  ZN_421
REMARK   37  A    between atoms: _90  and  _92
REMARK   38  A    between atoms: _92  and  _93
REMARK   39  A    between atoms: _92  and  _95
REMARK   40  A    between atoms: _95  and  _96
REMARK   41  A    between atoms: _96  and  _97
REMARK   42  A    between atoms: _99  and  _101
REMARK   43  A    between atoms: _101  and  _102
REMARK   44  A    between atoms: _101  and  _104
REMARK   45  A    between atoms: _104  and  _105
REMARK   46  A    between atoms: _108  and  _110
REMARK   47  A    between atoms: _110  and  _111
REMARK   48  A    between atoms: _110  and  _113
REMARK   49  A    between atoms: _113  and  _114
REMARK   50  A    between atoms: _114  and  _115
REMARK   51  A    between atoms: _118  and  _120
REMARK   52  A    between atoms: _120  and  _121
REMARK   53  A    between atoms: _120  and  _123
REMARK   54  A    between atoms: _123  and  _124
REMARK   55  A    between atoms: _124  and  _125
REMARK   56  A    between atoms: _128  and  _130
REMARK   57  A    between atoms: _130  and  _131
REMARK   58  A    between atoms: _130  and  _133
REMARK   59  A    between atoms: _133  and  _134
REMARK   60  A    between atoms: _137  and  _139
REMARK   61  A    between atoms: _139  and  _140
REMARK   62  A    between atoms: _139  and  _142
REMARK   63  A    between atoms: _142  and  _143
REMARK   64  A    between atoms: _146  and  _148
REMARK   65  A    between atoms: _148  and  _149
REMARK   66  A    between atoms: _148  and  _151
REMARK   67  A    between atoms: _151  and  _152
REMARK   68  A    between atoms: _154  and  _156
REMARK   69  A    between atoms: _156  and  _157
REMARK   70  A    between atoms: _156  and  _159
REMARK   71  A    between atoms: _159  and  _160
REMARK   72  A    between atoms: _164  and  ZN_421
REMARK   73  A    between atoms: _165  and  _167
REMARK   74  A    between atoms: _167  and  _168
REMARK   75  A    between atoms: _170  and  _172
REMARK   76  A    between atoms: _172  and  _173
REMARK   77  A    between atoms: _176  and  _178
REMARK   78  A    between atoms: _178  and  _179
REMARK   79  A    between atoms: _178  and  _181
REMARK   80  A    between atoms: _181  and  _182
REMARK   81  A    between atoms: _188  and  _190
REMARK   82  A    between atoms: _190  and  _191
REMARK   83  A    between atoms: _190  and  _193
REMARK   84  A    between atoms: _193  and  _194
REMARK   85  A    between atoms: _194  and  _195
REMARK   86  A    between atoms: _195  and  _196
REMARK   87  A    between atoms: _196  and  _197
REMARK   88  A    between atoms: _201  and  _203
REMARK   89  A    between atoms: _203  and  _204
REMARK   90  A    between atoms: _203  and  _206
REMARK   91  A    between atoms: _209  and  _211
REMARK   92  A    between atoms: _211  and  _212
REMARK   93  A    between atoms: _211  and  _214
REMARK   94  A    between atoms: _214  and  _215
REMARK   95  A    between atoms: _218  and  _220
REMARK   96  A    between atoms: _220  and  _221
REMARK   97  A    between atoms: _220  and  _223
REMARK   98  A    between atoms: _223  and  _224
REMARK   99  A    between atoms: _225  and  ZN_421
REMARK  100  A    between atoms: _229  and  _231
REMARK  101  A    between atoms: _231  and  _232
REMARK  102  A    between atoms: _234  and  _236
REMARK  103  A    between atoms: _236  and  _237
REMARK  104  A    between atoms: _240  and  _242
REMARK  105  A    between atoms: _242  and  _243
REMARK  106  A    between atoms: _242  and  _245
REMARK  107  A    between atoms: _245  and  _246
REMARK  108  A    between atoms: _248  and  _250
REMARK  109  A    between atoms: _250  and  _251
REMARK  110  A    between atoms: _254  and  _256
REMARK  111  A    between atoms: _256  and  _257
REMARK  112  A    between atoms: _256  and  _259
REMARK  113  A    between atoms: _259  and  _260
REMARK  114  A    between atoms: _263  and  _265
REMARK  115  A    between atoms: _265  and  _266
REMARK  116  A    between atoms: _265  and  _268
REMARK  117  A    between atoms: _268  and  _269
REMARK  118  A    between atoms: _269  and  _270
REMARK  119  A    between atoms: _270  and  _271
REMARK  120  A    between atoms: _271  and  _272
REMARK  121  A    between atoms: _276  and  _278
REMARK  122  A    between atoms: _278  and  _279
REMARK  123  A    between atoms: _281  and  _283
REMARK  124  A    between atoms: _283  and  _284
REMARK  125  A    between atoms: _283  and  _286
REMARK  126  A    between atoms: _289  and  _291
REMARK  127  A    between atoms: _291  and  _292
REMARK  128  A    between atoms: _291  and  _294
REMARK  129  A    between atoms: _294  and  _295
REMARK  130  A    between atoms: _295  and  _296
REMARK  131  A    between atoms: _296  and  _297
REMARK  132  A    between atoms: _297  and  _298
REMARK  133  A    between atoms: _302  and  _304
REMARK  134  A    between atoms: _304  and  _305
REMARK  135  A    between atoms: _304  and  _307
REMARK  136  A    between atoms: _310  and  _312
REMARK  137  A    between atoms: _312  and  _313
REMARK  138  A    between atoms: _312  and  _315
REMARK  139  A    between atoms: _315  and  _316
REMARK  140  A    between atoms: _321  and  _323
REMARK  141  A    between atoms: _323  and  _324
REMARK  142  A    between atoms: _323  and  _326
REMARK  143  A    between atoms: _326  and  _327
REMARK  144  A    between atoms: _330  and  _332
REMARK  145  A    between atoms: _332  and  _333
REMARK  146  A    between atoms: _332  and  _335
REMARK  147  A    between atoms: _335  and  _336
REMARK  148  A    between atoms: _339  and  _341
REMARK  149  A    between atoms: _341  and  _342
REMARK  150  A    between atoms: _341  and  _344
REMARK  151  A    between atoms: _344  and  _345
REMARK  152  A    between atoms: _348  and  _350
REMARK  153  A    between atoms: _350  and  _351
REMARK  154  A    between atoms: _350  and  _353
REMARK  155  A    between atoms: _353  and  _354
REMARK  156  A    between atoms: _357  and  _359
REMARK  157  A    between atoms: _359  and  _360
REMARK  158  A    between atoms: _359  and  _362
REMARK  159  A    between atoms: _362  and  _363
REMARK  160  A    between atoms: _366  and  _368
REMARK  161  A    between atoms: _368  and  _369
REMARK  162  A    between atoms: _368  and  _371
REMARK  163  A    between atoms: _371  and  _372
REMARK  164  A    between atoms: _372  and  _373
REMARK  165  A    between atoms: _373  and  _374
REMARK  166  A    between atoms: _383  and  _385
REMARK  167  A    between atoms: _385  and  _386
REMARK  168  A    between atoms: _385  and  _388
REMARK  169  A    between atoms: _388  and  _389
REMARK  170  A    between atoms: _392  and  _394
REMARK  171  A    between atoms: _394  and  _395
REMARK  172  A    between atoms: _394  and  _397
REMARK  173  A    between atoms: _397  and  _398
REMARK  174  A    between atoms: _398  and  _399
REMARK  175  A    between atoms: _399  and  _400
REMARK  176  A    between atoms: _409  and  _411
REMARK  177  A    between atoms: _411  and  _412
REMARK  178  A    between atoms: _411  and  _414
REMARK  179  A    between atoms: _414  and  _415
REMARK                            x       y       z     vdW  Elec       q    Type
REMARK                         _______ _______ _______ _____ _____    ______ ____
ROOT
ATOM      1 ZN   UNK A   4       5.037   0.455   3.474  0.00  0.00    +0.000 Zn
ENDROOT
BRANCH   1   2
ATOM      2  N   UNK A   4       5.371   2.320   2.567  0.00  0.00    +0.000 N 
ATOM      3  C   UNK A   4       4.784   3.496   2.968  0.00  0.00    +0.000 A 
ATOM      4  C   UNK A   4       5.777   4.320   3.376  0.00  0.00    +0.000 A 
ATOM      5  N   UNK A   4       6.950   3.618   3.205  0.00  0.00    +0.000 NA
ATOM      6  C   UNK A   4       6.679   2.420   2.721  0.00  0.00    +0.000 A 
BRANCH   4   7
ATOM      7  C   UNK A   4       5.737   5.721   3.904  0.00  0.00    +0.000 C 
BRANCH   7   8
ATOM      8  C   UNK A   4       4.662   6.598   3.249  0.00  0.00    +0.000 C 
BRANCH   8   9
ATOM      9  C   UNK A   4       4.664   7.995   3.877  0.00  0.00    +0.000 C 
ATOM     10  N   UNK A   4       4.060   8.122   5.056  0.00  0.00    +0.000 N 
ATOM     11  H   UNK A   4       3.565   7.305   5.467  0.00  0.00    +0.000 HD
ATOM     12  O   UNK A   4       5.197   8.944   3.294  0.00  0.00    +0.000 OA
BRANCH  10  13
ATOM     13  C   UNK A   4       4.080   9.384   5.781  0.00  0.00    +0.000 C 
BRANCH  13  14
ATOM     14  C   UNK A   4       2.910  10.328   5.553  0.00  0.00    +0.000 C 
ATOM     15  N   ALA A   5       2.914  11.431   6.297  0.00  0.00    +0.000 N 
ATOM     16  H   ALA A   5       3.749  11.637   6.881  0.00  0.00    +0.000 HD
ATOM     17  O   UNK A   4       2.029  10.080   4.721  0.00  0.00    +0.000 OA
BRANCH  15  18
ATOM     18  CA  ALA A   5       1.788  12.366   6.325  0.00  0.00    +0.000 C 
ATOM     19  CB  ALA A   5       1.824  13.182   7.608  0.00  0.00    +0.000 C 
BRANCH  18  20
ATOM     20  C   ALA A   5       1.730  13.293   5.111  0.00  0.00    +0.000 C 
ATOM     21  O   ALA A   5       0.753  14.020   4.925  0.00  0.00    +0.000 OA
ATOM     22  N   SER A   6       2.772  13.272   4.291  0.00  0.00    +0.000 N 
ATOM     23  H   SER A   6       3.551  12.604   4.459  0.00  0.00    +0.000 HD
BRANCH  22  24
ATOM     24  CA  SER A   6       2.827  14.186   3.152  0.00  0.00    +0.000 C 
BRANCH  24  25
ATOM     25  C   SER A   6       2.992  13.435   1.832  0.00  0.00    +0.000 C 
ATOM     26  N   ALA A   7       1.891  12.860   1.345  0.00  0.00    +0.000 N 
ATOM     27  H   ALA A   7       0.979  13.056   1.806  0.00  0.00    +0.000 HD
ATOM     28  O   SER A   6       4.087  13.396   1.269  0.00  0.00    +0.000 OA
BRANCH  26  29
ATOM     29  CA  ALA A   7       1.916  11.963   0.186  0.00  0.00    +0.000 C 
BRANCH  29  30
ATOM     30  C   ALA A   7       1.805  12.678  -1.166  0.00  0.00    +0.000 C 
ATOM     31  O   ALA A   7       2.515  12.335  -2.121  0.00  0.00    +0.000 OA
ENDBRANCH  29  30
BRANCH  29  32
ATOM     32  CB  ALA A   7       0.814  10.907   0.305  0.00  0.00    +0.000 C 
BRANCH  32  33
ATOM     33  CG  ALA A   7       0.931  10.064   1.556  0.00  0.00    +0.000 C 
BRANCH  33  34
ATOM     34  CD  ALA A   7      -0.213   9.081   1.684  0.00  0.00    +0.000 C 
BRANCH  34  35
ATOM     35  CE  ALA A   7      -0.245   8.493   3.090  0.00  0.00    +0.000 C 
BRANCH  35  36
ATOM     36  NZ  ALA A   7       1.091   7.935   3.452  0.00  0.00    +0.000 N 
ATOM     37  HZ1 ALA A   7       1.051   7.539   4.413  0.00  0.00    +0.000 HD
ATOM     38  HZ2 ALA A   7       1.803   8.693   3.418  0.00  0.00    +0.000 HD
ATOM     39  HZ3 ALA A   7       1.347   7.186   2.777  0.00  0.00    +0.000 HD
ENDBRANCH  35  36
ENDBRANCH  34  35
ENDBRANCH  33  34
ENDBRANCH  32  33
ENDBRANCH  29  32
ENDBRANCH  26  29
ENDBRANCH  24  25
BRANCH  24  40
ATOM     40  CB  SER A   6       3.950  15.207   3.354  0.00  0.00    +0.000 C 
BRANCH  40  41
ATOM     41  CG  SER A   6       4.020  15.750   4.750  0.00  0.00    +0.000 A 
ATOM     42  CD2 SER A   6       4.734  15.081   5.734  0.00  0.00    +0.000 A 
ATOM     43  CE2 SER A   6       4.795  15.572   7.032  0.00  0.00    +0.000 A 
ATOM     44  CZ  SER A   6       4.130  16.739   7.353  0.00  0.00    +0.000 A 
ATOM     45  CE1 SER A   6       3.410  17.414   6.380  0.00  0.00    +0.000 A 
ATOM     46  CD1 SER A   6       3.356  16.918   5.088  0.00  0.00    +0.000 A 
ENDBRANCH  40  41
ENDBRANCH  24  40
ENDBRANCH  22  24
ENDBRANCH  18  20
ENDBRANCH  15  18
ENDBRANCH  13  14
ENDBRANCH  10  13
ENDBRANCH   8   9
BRANCH   8  47
ATOM     47  N   UNK A   4       4.855   6.644   1.802  0.00  0.00    +0.000 N 
ATOM     48  H   UNK A   4       5.747   6.289   1.402  0.00  0.00    +0.000 HD
ATOM     49  C   LEU A   2       3.927   7.125   0.978  0.00  0.00    +0.000 C 
ATOM     50  O   LEU A   2       2.843   7.578   1.365  0.00  0.00    +0.000 OA
BRANCH  49  51
ATOM     51  CA  LEU A   2       4.251   7.090  -0.504  0.00  0.00    +0.000 C 
BRANCH  51  52
ATOM     52  N   LEU A   2       2.992   7.136  -1.244  0.00  0.00    +0.000 N 
ATOM     53  H   LEU A   2       2.203   7.688  -0.851  0.00  0.00    +0.000 HD
ATOM     54  C   VAL A   1       2.814   6.502  -2.398  0.00  0.00    +0.000 C 
ATOM     55  O   VAL A   1       3.732   5.954  -3.015  0.00  0.00    +0.000 OA
BRANCH  54  56
ATOM     56  CA  VAL A   1       1.379   6.491  -2.937  0.00  0.00    +0.000 C 
BRANCH  56  57
ATOM     57  N   VAL A   1       1.362   6.172  -4.361  0.00  0.00    +0.000 NA
ATOM     58  H   VAL A   1       1.343   5.177  -4.664  0.00  0.00    +0.000 HD
ENDBRANCH  56  57
BRANCH  56  59
ATOM     59  CB  VAL A   1       0.568   5.483  -2.097  0.00  0.00    +0.000 C 
ATOM     60  CG2 VAL A   1      -0.879   5.402  -2.561  0.00  0.00    +0.000 C 
BRANCH  59  61
ATOM     61  OG1 VAL A   1       1.173   4.192  -2.199  0.00  0.00    +0.000 OA
ATOM     62  HG1 VAL A   1       0.655   3.543  -1.661  0.00  0.00    +0.000 HD
ENDBRANCH  59  61
ENDBRANCH  56  59
ENDBRANCH  54  56
ENDBRANCH  51  52
BRANCH  51  63
ATOM     63  CB  LEU A   2       5.158   8.264  -0.880  0.00  0.00    +0.000 C 
BRANCH  63  64
ATOM     64  O   LEU A   2       4.499   9.504  -0.697  0.00  0.00    +0.000 OA
ATOM     65  H   LEU A   2       4.237   9.600   0.253  0.00  0.00    +0.000 HD
ENDBRANCH  63  64
ENDBRANCH  51  63
ENDBRANCH  49  51
ENDBRANCH   8  47
ENDBRANCH   7   8
ENDBRANCH   4   7
ENDBRANCH   1   2
BRANCH   1  66
ATOM     66  N   UNK A   4       4.183  -0.827   1.977  0.00  0.00    +0.000 N 
ATOM     67  C   UNK A   4       4.389  -2.119   2.145  0.00  0.00    +0.000 A 
ATOM     68  N   UNK A   4       3.639  -2.772   1.273  0.00  0.00    +0.000 NA
ATOM     69  C   UNK A   4       2.941  -1.869   0.517  0.00  0.00    +0.000 A 
ATOM     70  C   UNK A   4       3.284  -0.635   0.954  0.00  0.00    +0.000 A 
BRANCH  70  71
ATOM     71  C   UNK A   4       2.825   0.719   0.530  0.00  0.00    +0.000 C 
BRANCH  71  72
ATOM     72  C   UNK A   4       1.350   0.979   0.817  0.00  0.00    +0.000 C 
BRANCH  72  73
ATOM     73  N   UNK A   4       0.515   0.360  -0.193  0.00  0.00    +0.000 N 
ATOM     74  C   LEU A   2      -0.707  -0.083   0.081  0.00  0.00    +0.000 C 
ATOM     75  O   LEU A   2      -1.200  -0.070   1.227  0.00  0.00    +0.000 OA
ATOM     76  H   UNK A   4       0.883   0.260  -1.160  0.00  0.00    +0.000 HD
BRANCH  74  77
ATOM     77  CA  LEU A   2      -1.496  -0.632  -1.105  0.00  0.00    +0.000 C 
BRANCH  77  78
ATOM     78  N   LEU A   2      -1.725  -2.059  -0.932  0.00  0.00    +0.000 N 
ATOM     79  H   LEU A   2      -2.375  -2.406  -0.198  0.00  0.00    +0.000 HD
ATOM     80  C   VAL A   1      -1.089  -2.910  -1.728  0.00  0.00    +0.000 C 
ATOM     81  O   VAL A   1      -0.402  -2.522  -2.680  0.00  0.00    +0.000 OA
BRANCH  80  82
ATOM     82  CA  VAL A   1      -1.288  -4.402  -1.455  0.00  0.00    +0.000 C 
BRANCH  82  83
ATOM     83  CB  VAL A   1      -0.063  -4.962  -0.745  0.00  0.00    +0.000 C 
ATOM     84  CG2 VAL A   1       0.107  -4.322   0.630  0.00  0.00    +0.000 C 
ATOM     85  CG1 VAL A   1      -0.194  -6.482  -0.633  0.00  0.00    +0.000 C 
ENDBRANCH  82  83
BRANCH  82  86
ATOM     86  N   VAL A   1      -1.526  -5.134  -2.706  0.00  0.00    +0.000 NA
ATOM     87  H   VAL A   1      -0.778  -5.154  -3.428  0.00  0.00    +0.000 HD
ENDBRANCH  82  86
ENDBRANCH  80  82
ENDBRANCH  77  78
BRANCH  77  88
ATOM     88  CB  LEU A   2      -2.801   0.140  -1.261  0.00  0.00    +0.000 C 
BRANCH  88  89
ATOM     89  CG  LEU A   2      -2.602   1.642  -1.510  0.00  0.00    +0.000 C 
ATOM     90  CD2 LEU A   2      -3.877   2.425  -1.288  0.00  0.00    +0.000 C 
ATOM     91  CD1 LEU A   2      -2.081   1.887  -2.931  0.00  0.00    +0.000 C 
ENDBRANCH  88  89
ENDBRANCH  77  88
ENDBRANCH  74  77
ENDBRANCH  72  73
BRANCH  72  92
ATOM     92  C   UNK A   4       1.103   2.458   0.838  0.00  0.00    +0.000 C 
ATOM     93  N   UNK A   4       1.512   3.086   1.938  0.00  0.00    +0.000 N 
ATOM     94  H   UNK A   4       1.952   2.536   2.703  0.00  0.00    +0.000 HD
ATOM     95  O   UNK A   4       0.566   3.018  -0.124  0.00  0.00    +0.000 OA
BRANCH  93  96
ATOM     96  C   UNK A   4       1.358   4.521   2.095  0.00  0.00    +0.000 C 
BRANCH  96  97
ATOM     97  C   UNK A   4      -0.089   4.941   1.969  0.00  0.00    +0.000 C 
ATOM     98  N   ALA A   5      -0.973   4.134   2.559  0.00  0.00    +0.000 N 
ATOM     99  H   ALA A   5      -0.619   3.368   3.167  0.00  0.00    +0.000 HD
ATOM    100  O   UNK A   4      -0.396   5.979   1.375  0.00  0.00    +0.000 OA
BRANCH  98 101
ATOM    101  CA  ALA A   5      -2.420   4.280   2.388  0.00  0.00    +0.000 C 
ATOM    102  CB  ALA A   5      -3.056   2.919   2.192  0.00  0.00    +0.000 C 
BRANCH 101 103
ATOM    103  C   ALA A   5      -3.156   5.042   3.488  0.00  0.00    +0.000 C 
ATOM    104  N   SER A   6      -2.441   5.736   4.362  0.00  0.00    +0.000 N 
ATOM    105  H   SER A   6      -1.402   5.710   4.338  0.00  0.00    +0.000 HD
ATOM    106  O   ALA A   5      -4.375   4.994   3.552  0.00  0.00    +0.000 OA
BRANCH 104 107
ATOM    107  CA  SER A   6      -3.143   6.536   5.357  0.00  0.00    +0.000 C 
BRANCH 107 108
ATOM    108  C   SER A   6      -3.922   7.637   4.658  0.00  0.00    +0.000 C 
ATOM    109  N   ALA A   7      -4.995   8.076   5.306  0.00  0.00    +0.000 N 
ATOM    110  H   ALA A   7      -5.150   7.765   6.286  0.00  0.00    +0.000 HD
ATOM    111  O   SER A   6      -3.558   8.070   3.561  0.00  0.00    +0.000 OA
BRANCH 109 112
ATOM    112  CA  ALA A   7      -5.959   8.973   4.699  0.00  0.00    +0.000 C 
ATOM    113  CB  ALA A   7      -7.356   8.466   4.966  0.00  0.00    +0.000 C 
BRANCH 112 114
ATOM    114  C   ALA A   7      -5.793  10.381   5.252  0.00  0.00    +0.000 C 
ATOM    115  N   ILE A   8      -5.379  10.447   6.521  0.00  0.00    +0.000 N 
ATOM    116  H   ILE A   8      -5.114   9.555   6.985  0.00  0.00    +0.000 HD
ATOM    117  O   ALA A   7      -6.021  11.367   4.538  0.00  0.00    +0.000 OA
BRANCH 115 118
ATOM    118  CA  ILE A   8      -5.269  11.676   7.309  0.00  0.00    +0.000 C 
BRANCH 118 119
ATOM    119  C   ILE A   8      -6.597  12.413   7.456  0.00  0.00    +0.000 C 
ATOM    120  O   ILE A   8      -6.717  13.578   7.071  0.00  0.00    +0.000 OA
ENDBRANCH 118 119
BRANCH 118 121
ATOM    121  CB  ILE A   8      -4.173  12.633   6.787  0.00  0.00    +0.000 C 
ATOM    122  CG2 ILE A   8      -3.908  13.744   7.815  0.00  0.00    +0.000 C 
BRANCH 121 123
ATOM    123  CG1 ILE A   8      -2.858  11.882   6.578  0.00  0.00    +0.000 C 
ATOM    124  CD1 ILE A   8      -2.009  11.804   7.835  0.00  0.00    +0.000 C 
ENDBRANCH 121 123
ENDBRANCH 118 121
ENDBRANCH 115 118
ENDBRANCH 112 114
ENDBRANCH 109 112
ENDBRANCH 107 108
BRANCH 107 125
ATOM    125  CB  SER A   6      -2.198   7.116   6.408  0.00  0.00    +0.000 C 
BRANCH 125 126
ATOM    126  OG  SER A   6      -1.943   6.165   7.424  0.00  0.00    +0.000 OA
ATOM    127  H   SER A   6      -1.526   5.361   7.025  0.00  0.00    +0.000 HD
ENDBRANCH 125 126
ENDBRANCH 107 125
ENDBRANCH 104 107
ENDBRANCH 101 103
ENDBRANCH  98 101
ENDBRANCH  96  97
ENDBRANCH  93  96
ENDBRANCH  72  92
ENDBRANCH  71  72
ENDBRANCH  70  71
ENDBRANCH   1  66
BRANCH   1 130
ATOM    128  C   UNK A   4       8.422  -1.737   4.159  0.00  0.00    +0.000 A 
ATOM    129  C   UNK A   4       7.245  -1.171   4.512  0.00  0.00    +0.000 A 
ATOM    130  N   UNK A   4       6.754  -0.535   3.397  0.00  0.00    +0.000 N 
ATOM    131  C   UNK A   4       7.600  -0.701   2.402  0.00  0.00    +0.000 A 
ATOM    132  N   UNK A   4       8.613  -1.429   2.837  0.00  0.00    +0.000 NA
BRANCH 128 133
ATOM    133  C   UNK A   4       9.395  -2.562   4.939  0.00  0.00    +0.000 C 
BRANCH 133 134
ATOM    134  C   UNK A   4       9.143  -4.063   4.823  0.00  0.00    +0.000 C 
BRANCH 134 137
ATOM    135  C   UNK A   3       7.666  -4.544   6.733  0.00  0.00    +0.000 C 
ATOM    136  O   UNK A   3       8.529  -4.296   7.567  0.00  0.00    +0.000 OA
ATOM    137  N   UNK A   4       7.853  -4.426   5.421  0.00  0.00    +0.000 N 
ATOM    138  H   UNK A   4       7.046  -4.599   4.789  0.00  0.00    +0.000 HD
BRANCH 135 139
ATOM    139  C   UNK A   3       6.309  -5.042   7.166  0.00  0.00    +0.000 C 
BRANCH 139 141
ATOM    140  C   LEU A   2       6.418  -7.402   7.663  0.00  0.00    +0.000 C 
ATOM    141  N   UNK A   3       6.509  -6.152   8.059  0.00  0.00    +0.000 N 
ATOM    142  H   UNK A   3       6.734  -5.958   9.056  0.00  0.00    +0.000 HD
ATOM    143  O   LEU A   2       6.296  -7.713   6.494  0.00  0.00    +0.000 OA
BRANCH 140 144
ATOM    144  CA  LEU A   2       6.479  -8.444   8.766  0.00  0.00    +0.000 C 
BRANCH 144 147
ATOM    145  C   VAL A   1       4.115  -8.748   9.336  0.00  0.00    +0.000 C 
ATOM    146  O   VAL A   1       4.045  -7.667   9.945  0.00  0.00    +0.000 OA
ATOM    147  N   LEU A   2       5.235  -9.211   8.787  0.00  0.00    +0.000 N 
ATOM    148  H   LEU A   2       5.225 -10.157   8.355  0.00  0.00    +0.000 HD
BRANCH 145 149
ATOM    149  CA  VAL A   1       2.883  -9.630   9.147  0.00  0.00    +0.000 C 
BRANCH 149 150
ATOM    150  N   VAL A   1       2.194  -9.926  10.383  0.00  0.00    +0.000 NA
ATOM    151  H   VAL A   1       1.866  -9.132  10.968  0.00  0.00    +0.000 HD
ENDBRANCH 149 150
BRANCH 149 152
ATOM    152  CB  VAL A   1       1.927  -8.913   8.212  0.00  0.00    +0.000 C 
BRANCH 152 153
ATOM    153  CG  VAL A   1       2.521  -8.556   6.882  0.00  0.00    +0.000 A 
ATOM    154  CD2 VAL A   1       3.029  -7.389   6.416  0.00  0.00    +0.000 A 
ATOM    155  NE2 VAL A   1       3.419  -7.607   5.114  0.00  0.00    +0.000 NA
ATOM    156  CE1 VAL A   1       3.152  -8.859   4.789  0.00  0.00    +0.000 A 
ATOM    157  ND1 VAL A   1       2.608  -9.454   5.838  0.00  0.00    +0.000 NA
ENDBRANCH 152 153
ENDBRANCH 149 152
ENDBRANCH 145 149
ENDBRANCH 144 147
BRANCH 144 158
ATOM    158  CB  LEU A   2       7.673  -9.367   8.532  0.00  0.00    +0.000 C 
BRANCH 158 159
ATOM    159  CG  LEU A   2       9.005  -8.632   8.446  0.00  0.00    +0.000 C 
ATOM    160  CD2 LEU A   2       9.342  -8.043   9.807  0.00  0.00    +0.000 C 
ATOM    161  CD1 LEU A   2      10.090  -9.579   7.989  0.00  0.00    +0.000 C 
ENDBRANCH 158 159
ENDBRANCH 144 158
ENDBRANCH 140 144
ENDBRANCH 139 141
BRANCH 139 162
ATOM    162  C   UNK A   3       5.546  -3.946   7.908  0.00  0.00    +0.000 C 
BRANCH 162 163
ATOM    163  C   UNK A   3       5.153  -2.800   7.017  0.00  0.00    +0.000 C 
ATOM    164  O   UNK A   3       4.901  -1.700   7.550  0.00  0.00    +0.000 OA
ATOM    165  O   UNK A   3       5.102  -2.992   5.792  0.00  0.00    +0.000 OA
ENDBRANCH 162 163
ENDBRANCH 139 162
ENDBRANCH 135 139
ENDBRANCH 134 137
BRANCH 134 166
ATOM    166  C   UNK A   4      10.335  -4.838   5.373  0.00  0.00    +0.000 C 
ATOM    167  O   UNK A   4      11.239  -4.258   5.962  0.00  0.00    +0.000 OA
ENDBRANCH 134 166
ENDBRANCH 133 134
ENDBRANCH 128 133
ENDBRANCH   1 130
TORSDOF 71
REMARK  Name = ../refined-set-2016/3c52/3c52_pocket.pdb
REMARK  179 active torsions:
REMARK  status: ('A' for Active; 'I' for Inactive)
REMARK    1  A    between atoms: _1  and  _3
REMARK    2  A    between atoms: _3  and  _4
REMARK    3  A    between atoms: _7  and  _9
REMARK    4  A    between atoms: _9  and  _10
REMARK    5  A    between atoms: _9  and  _12
REMARK    6  A    between atoms: _12  and  _13
REMARK    7  A    between atoms: _19  and  _21
REMARK    8  A    between atoms: _21  and  _22
REMARK    9  A    between atoms: _21  and  _24
REMARK   10  A    between atoms: _24  and  _25
REMARK   11  A    between atoms: _30  and  _32
REMARK   12  A    between atoms: _32  and  _33
REMARK   13  A    between atoms: _32  and  _35
REMARK   14  A    between atoms: _35  and  _36
REMARK   15  A    between atoms: _36  and  _37
REMARK   16  A    between atoms: _42  and  _44
REMARK   17  A    between atoms: _44  and  _45
REMARK   18  A    between atoms: _44  and  _47
REMARK   19  A    between atoms: _47  and  _48
REMARK   20  A    between atoms: _50  and  _52
REMARK   21  A    between atoms: _52  and  _53
REMARK   22  A    between atoms: _52  and  _55
REMARK   23  A    between atoms: _55  and  _56
REMARK   24  A    between atoms: _61  and  _63
REMARK   25  A    between atoms: _63  and  _64
REMARK   26  A    between atoms: _63  and  _66
REMARK   27  A    between atoms: _66  and  _67
REMARK   28  A    between atoms: _70  and  _72
REMARK   29  A    between atoms: _72  and  _73
REMARK   30  A    between atoms: _72  and  _75
REMARK   31  A    between atoms: _75  and  _76
REMARK   32  A    between atoms: _79  and  _81
REMARK   33  A    between atoms: _81  and  _82
REMARK   34  A    between atoms: _81  and  _84
REMARK   35  A    between atoms: _84  and  _85
REMARK   36  A    between atoms: _89  and  ZN_421
REMARK   37  A    between atoms: _90  and  _92
REMARK   38  A    between atoms: _92  and  _93
REMARK   39  A    between atoms: _92  and  _95
REMARK   40  A    between atoms: _95  and  _96
REMARK   41  A    between atoms: _96  and  _97
REMARK   42  A    between atoms: _99  and  _101
REMARK   43  A    between atoms: _101  and  _102
REMARK   44  A    between atoms: _101  and  _104
REMARK   45  A    between atoms: _104  and  _105
REMARK   46  A    between atoms: _108  and  _110
REMARK   47  A    between atoms: _110  and  _111
REMARK   48  A    between atoms: _110  and  _113
REMARK   49  A    between atoms: _113  and  _114
REMARK   50  A    between atoms: _114  and  _115
REMARK   51  A    between atoms: _118  and  _120
REMARK   52  A    between atoms: _120  and  _121
REMARK   53  A    between atoms: _120  and  _123
REMARK   54  A    between atoms: _123  and  _124
REMARK   55  A    between atoms: _124  and  _125
REMARK   56  A    between atoms: _128  and  _130
REMARK   57  A    between atoms: _130  and  _131
REMARK   58  A    between atoms: _130  and  _133
REMARK   59  A    between atoms: _133  and  _134
REMARK   60  A    between atoms: _137  and  _139
REMARK   61  A    between atoms: _139  and  _140
REMARK   62  A    between atoms: _139  and  _142
REMARK   63  A    between atoms: _142  and  _143
REMARK   64  A    between atoms: _146  and  _148
REMARK   65  A    between atoms: _148  and  _149
REMARK   66  A    between atoms: _148  and  _151
REMARK   67  A    between atoms: _151  and  _152
REMARK   68  A    between atoms: _154  and  _156
REMARK   69  A    between atoms: _156  and  _157
REMARK   70  A    between atoms: _156  and  _159
REMARK   71  A    between atoms: _159  and  _160
REMARK   72  A    between atoms: _164  and  ZN_421
REMARK   73  A    between atoms: _165  and  _167
REMARK   74  A    between atoms: _167  and  _168
REMARK   75  A    between atoms: _170  and  _172
REMARK   76  A    between atoms: _172  and  _173
REMARK   77  A    between atoms: _176  and  _178
REMARK   78  A    between atoms: _178  and  _179
REMARK   79  A    between atoms: _178  and  _181
REMARK   80  A    between atoms: _181  and  _182
REMARK   81  A    between atoms: _188  and  _190
REMARK   82  A    between atoms: _190  and  _191
REMARK   83  A    between atoms: _190  and  _193
REMARK   84  A    between atoms: _193  and  _194
REMARK   85  A    between atoms: _194  and  _195
REMARK   86  A    between atoms: _195  and  _196
REMARK   87  A    between atoms: _196  and  _197
REMARK   88  A    between atoms: _201  and  _203
REMARK   89  A    between atoms: _203  and  _204
REMARK   90  A    between atoms: _203  and  _206
REMARK   91  A    between atoms: _209  and  _211
REMARK   92  A    between atoms: _211  and  _212
REMARK   93  A    between atoms: _211  and  _214
REMARK   94  A    between atoms: _214  and  _215
REMARK   95  A    between atoms: _218  and  _220
REMARK   96  A    between atoms: _220  and  _221
REMARK   97  A    between atoms: _220  and  _223
REMARK   98  A    between atoms: _223  and  _224
REMARK   99  A    between atoms: _225  and  ZN_421
REMARK  100  A    between atoms: _229  and  _231
REMARK  101  A    between atoms: _231  and  _232
REMARK  102  A    between atoms: _234  and  _236
REMARK  103  A    between atoms: _236  and  _237
REMARK  104  A    between atoms: _240  and  _242
REMARK  105  A    between atoms: _242  and  _243
REMARK  106  A    between atoms: _242  and  _245
REMARK  107  A    between atoms: _245  and  _246
REMARK  108  A    between atoms: _248  and  _250
REMARK  109  A    between atoms: _250  and  _251
REMARK  110  A    between atoms: _254  and  _256
REMARK  111  A    between atoms: _256  and  _257
REMARK  112  A    between atoms: _256  and  _259
REMARK  113  A    between atoms: _259  and  _260
REMARK  114  A    between atoms: _263  and  _265
REMARK  115  A    between atoms: _265  and  _266
REMARK  116  A    between atoms: _265  and  _268
REMARK  117  A    between atoms: _268  and  _269
REMARK  118  A    between atoms: _269  and  _270
REMARK  119  A    between atoms: _270  and  _271
REMARK  120  A    between atoms: _271  and  _272
REMARK  121  A    between atoms: _276  and  _278
REMARK  122  A    between atoms: _278  and  _279
REMARK  123  A    between atoms: _281  and  _283
REMARK  124  A    between atoms: _283  and  _284
REMARK  125  A    between atoms: _283  and  _286
REMARK  126  A    between atoms: _289  and  _291
REMARK  127  A    between atoms: _291  and  _292
REMARK  128  A    between atoms: _291  and  _294
REMARK  129  A    between atoms: _294  and  _295
REMARK  130  A    between atoms: _295  and  _296
REMARK  131  A    between atoms: _296  and  _297
REMARK  132  A    between atoms: _297  and  _298
REMARK  133  A    between atoms: _302  and  _304
REMARK  134  A    between atoms: _304  and  _305
REMARK  135  A    between atoms: _304  and  _307
REMARK  136  A    between atoms: _310  and  _312
REMARK  137  A    between atoms: _312  and  _313
REMARK  138  A    between atoms: _312  and  _315
REMARK  139  A    between atoms: _315  and  _316
REMARK  140  A    between atoms: _321  and  _323
REMARK  141  A    between atoms: _323  and  _324
REMARK  142  A    between atoms: _323  and  _326
REMARK  143  A    between atoms: _326  and  _327
REMARK  144  A    between atoms: _330  and  _332
REMARK  145  A    between atoms: _332  and  _333
REMARK  146  A    between atoms: _332  and  _335
REMARK  147  A    between atoms: _335  and  _336
REMARK  148  A    between atoms: _339  and  _341
REMARK  149  A    between atoms: _341  and  _342
REMARK  150  A    between atoms: _341  and  _344
REMARK  151  A    between atoms: _344  and  _345
REMARK  152  A    between atoms: _348  and  _350
REMARK  153  A    between atoms: _350  and  _351
REMARK  154  A    between atoms: _350  and  _353
REMARK  155  A    between atoms: _353  and  _354
REMARK  156  A    between atoms: _357  and  _359
REMARK  157  A    between atoms: _359  and  _360
REMARK  158  A    between atoms: _359  and  _362
REMARK  159  A    between atoms: _362  and  _363
REMARK  160  A    between atoms: _366  and  _368
REMARK  161  A    between atoms: _368  and  _369
REMARK  162  A    between atoms: _368  and  _371
REMARK  163  A    between atoms: _371  and  _372
REMARK  164  A    between atoms: _372  and  _373
REMARK  165  A    between atoms: _373  and  _374
REMARK  166  A    between atoms: _383  and  _385
REMARK  167  A    between atoms: _385  and  _386
REMARK  168  A    between atoms: _385  and  _388
REMARK  169  A    between atoms: _388  and  _389
REMARK  170  A    between atoms: _392  and  _394
REMARK  171  A    between atoms: _394  and  _395
REMARK  172  A    between atoms: _394  and  _397
REMARK  173  A    between atoms: _397  and  _398
REMARK  174  A    between atoms: _398  and  _399
REMARK  175  A    between atoms: _399  and  _400
REMARK  176  A    between atoms: _409  and  _411
REMARK  177  A    between atoms: _411  and  _412
REMARK  178  A    between atoms: _411  and  _414
REMARK  179  A    between atoms: _414  and  _415
REMARK                            x       y       z     vdW  Elec       q    Type
REMARK                         _______ _______ _______ _____ _____    ______ ____
ROOT
ATOM      1  CA  MET A   1       7.065  -8.793   3.172  0.00  0.00    +0.134 C 
ENDROOT
BRANCH   1   2
ATOM      2  N   MET A   1       6.842  -9.511   4.418  0.00  0.00    -0.239 NA
ATOM      3  H   MET A   1       7.060  -9.075   5.337  0.00  0.00    +0.142 HD
ENDBRANCH   1   2
BRANCH   1   4
ATOM      4  C   MET A   1       8.560  -8.688   2.950  0.00  0.00    +0.224 C 
ATOM      5  O   MET A   1       9.311  -8.348   3.876  0.00  0.00    -0.287 OA
ENDBRANCH   1   4
BRANCH   1   6
ATOM      6  CB  MET A   1       6.453  -7.405   3.173  0.00  0.00    +0.037 C 
BRANCH   6   7
ATOM      7  CG  MET A   1       6.852  -6.613   1.950  0.00  0.00    +0.059 C 
BRANCH   7   8
ATOM      8  SD  MET A   1       6.681  -4.843   2.191  0.00  0.00    -0.139 S 
ATOM      9  CE  MET A   1       6.744  -4.272   0.492  0.00  0.00    +0.069 C 
ENDBRANCH   7   8
ENDBRANCH   6   7
ENDBRANCH   1   6
TORSDOF 5
REMARK  Name = ../refined-set-2016/3c52/3c52_pocket.pdb
REMARK  179 active torsions:
REMARK  status: ('A' for Active; 'I' for Inactive)
REMARK    1  A    between atoms: _1  and  _3
REMARK    2  A    between atoms: _3  and  _4
REMARK    3  A    between atoms: _7  and  _9
REMARK    4  A    between atoms: _9  and  _10
REMARK    5  A    between atoms: _9  and  _12
REMARK    6  A    between atoms: _12  and  _13
REMARK    7  A    between atoms: _19  and  _21
REMARK    8  A    between atoms: _21  and  _22
REMARK    9  A    between atoms: _21  and  _24
REMARK   10  A    between atoms: _24  and  _25
REMARK   11  A    between atoms: _30  and  _32
REMARK   12  A    between atoms: _32  and  _33
REMARK   13  A    between atoms: _32  and  _35
REMARK   14  A    between atoms: _35  and  _36
REMARK   15  A    between atoms: _36  and  _37
REMARK   16  A    between atoms: _42  and  _44
REMARK   17  A    between atoms: _44  and  _45
REMARK   18  A    between atoms: _44  and  _47
REMARK   19  A    between atoms: _47  and  _48
REMARK   20  A    between atoms: _50  and  _52
REMARK   21  A    between atoms: _52  and  _53
REMARK   22  A    between atoms: _52  and  _55
REMARK   23  A    between atoms: _55  and  _56
REMARK   24  A    between atoms: _61  and  _63
REMARK   25  A    between atoms: _63  and  _64
REMARK   26  A    between atoms: _63  and  _66
REMARK   27  A    between atoms: _66  and  _67
REMARK   28  A    between atoms: _70  and  _72
REMARK   29  A    between atoms: _72  and  _73
REMARK   30  A    between atoms: _72  and  _75
REMARK   31  A    between atoms: _75  and  _76
REMARK   32  A    between atoms: _79  and  _81
REMARK   33  A    between atoms: _81  and  _82
REMARK   34  A    between atoms: _81  and  _84
REMARK   35  A    between atoms: _84  and  _85
REMARK   36  A    between atoms: _89  and  ZN_421
REMARK   37  A    between atoms: _90  and  _92
REMARK   38  A    between atoms: _92  and  _93
REMARK   39  A    between atoms: _92  and  _95
REMARK   40  A    between atoms: _95  and  _96
REMARK   41  A    between atoms: _96  and  _97
REMARK   42  A    between atoms: _99  and  _101
REMARK   43  A    between atoms: _101  and  _102
REMARK   44  A    between atoms: _101  and  _104
REMARK   45  A    between atoms: _104  and  _105
REMARK   46  A    between atoms: _108  and  _110
REMARK   47  A    between atoms: _110  and  _111
REMARK   48  A    between atoms: _110  and  _113
REMARK   49  A    between atoms: _113  and  _114
REMARK   50  A    between atoms: _114  and  _115
REMARK   51  A    between atoms: _118  and  _120
REMARK   52  A    between atoms: _120  and  _121
REMARK   53  A    between atoms: _120  and  _123
REMARK   54  A    between atoms: _123  and  _124
REMARK   55  A    between atoms: _124  and  _125
REMARK   56  A    between atoms: _128  and  _130
REMARK   57  A    between atoms: _130  and  _131
REMARK   58  A    between atoms: _130  and  _133
REMARK   59  A    between atoms: _133  and  _134
REMARK   60  A    between atoms: _137  and  _139
REMARK   61  A    between atoms: _139  and  _140
REMARK   62  A    between atoms: _139  and  _142
REMARK   63  A    between atoms: _142  and  _143
REMARK   64  A    between atoms: _146  and  _148
REMARK   65  A    between atoms: _148  and  _149
REMARK   66  A    between atoms: _148  and  _151
REMARK   67  A    between atoms: _151  and  _152
REMARK   68  A    between atoms: _154  and  _156
REMARK   69  A    between atoms: _156  and  _157
REMARK   70  A    between atoms: _156  and  _159
REMARK   71  A    between atoms: _159  and  _160
REMARK   72  A    between atoms: _164  and  ZN_421
REMARK   73  A    between atoms: _165  and  _167
REMARK   74  A    between atoms: _167  and  _168
REMARK   75  A    between atoms: _170  and  _172
REMARK   76  A    between atoms: _172  and  _173
REMARK   77  A    between atoms: _176  and  _178
REMARK   78  A    between atoms: _178  and  _179
REMARK   79  A    between atoms: _178  and  _181
REMARK   80  A    between atoms: _181  and  _182
REMARK   81  A    between atoms: _188  and  _190
REMARK   82  A    between atoms: _190  and  _191
REMARK   83  A    between atoms: _190  and  _193
REMARK   84  A    between atoms: _193  and  _194
REMARK   85  A    between atoms: _194  and  _195
REMARK   86  A    between atoms: _195  and  _196
REMARK   87  A    between atoms: _196  and  _197
REMARK   88  A    between atoms: _201  and  _203
REMARK   89  A    between atoms: _203  and  _204
REMARK   90  A    between atoms: _203  and  _206
REMARK   91  A    between atoms: _209  and  _211
REMARK   92  A    between atoms: _211  and  _212
REMARK   93  A    between atoms: _211  and  _214
REMARK   94  A    between atoms: _214  and  _215
REMARK   95  A    between atoms: _218  and  _220
REMARK   96  A    between atoms: _220  and  _221
REMARK   97  A    between atoms: _220  and  _223
REMARK   98  A    between atoms: _223  and  _224
REMARK   99  A    between atoms: _225  and  ZN_421
REMARK  100  A    between atoms: _229  and  _231
REMARK  101  A    between atoms: _231  and  _232
REMARK  102  A    between atoms: _234  and  _236
REMARK  103  A    between atoms: _236  and  _237
REMARK  104  A    between atoms: _240  and  _242
REMARK  105  A    between atoms: _242  and  _243
REMARK  106  A    between atoms: _242  and  _245
REMARK  107  A    between atoms: _245  and  _246
REMARK  108  A    between atoms: _248  and  _250
REMARK  109  A    between atoms: _250  and  _251
REMARK  110  A    between atoms: _254  and  _256
REMARK  111  A    between atoms: _256  and  _257
REMARK  112  A    between atoms: _256  and  _259
REMARK  113  A    between atoms: _259  and  _260
REMARK  114  A    between atoms: _263  and  _265
REMARK  115  A    between atoms: _265  and  _266
REMARK  116  A    between atoms: _265  and  _268
REMARK  117  A    between atoms: _268  and  _269
REMARK  118  A    between atoms: _269  and  _270
REMARK  119  A    between atoms: _270  and  _271
REMARK  120  A    between atoms: _271  and  _272
REMARK  121  A    between atoms: _276  and  _278
REMARK  122  A    between atoms: _278  and  _279
REMARK  123  A    between atoms: _281  and  _283
REMARK  124  A    between atoms: _283  and  _284
REMARK  125  A    between atoms: _283  and  _286
REMARK  126  A    between atoms: _289  and  _291
REMARK  127  A    between atoms: _291  and  _292
REMARK  128  A    between atoms: _291  and  _294
REMARK  129  A    between atoms: _294  and  _295
REMARK  130  A    between atoms: _295  and  _296
REMARK  131  A    between atoms: _296  and  _297
REMARK  132  A    between atoms: _297  and  _298
REMARK  133  A    between atoms: _302  and  _304
REMARK  134  A    between atoms: _304  and  _305
REMARK  135  A    between atoms: _304  and  _307
REMARK  136  A    between atoms: _310  and  _312
REMARK  137  A    between atoms: _312  and  _313
REMARK  138  A    between atoms: _312  and  _315
REMARK  139  A    between atoms: _315  and  _316
REMARK  140  A    between atoms: _321  and  _323
REMARK  141  A    between atoms: _323  and  _324
REMARK  142  A    between atoms: _323  and  _326
REMARK  143  A    between atoms: _326  and  _327
REMARK  144  A    between atoms: _330  and  _332
REMARK  145  A    between atoms: _332  and  _333
REMARK  146  A    between atoms: _332  and  _335
REMARK  147  A    between atoms: _335  and  _336
REMARK  148  A    between atoms: _339  and  _341
REMARK  149  A    between atoms: _341  and  _342
REMARK  150  A    between atoms: _341  and  _344
REMARK  151  A    between atoms: _344  and  _345
REMARK  152  A    between atoms: _348  and  _350
REMARK  153  A    between atoms: _350  and  _351
REMARK  154  A    between atoms: _350  and  _353
REMARK  155  A    between atoms: _353  and  _354
REMARK  156  A    between atoms: _357  and  _359
REMARK  157  A    between atoms: _359  and  _360
REMARK  158  A    between atoms: _359  and  _362
REMARK  159  A    between atoms: _362  and  _363
REMARK  160  A    between atoms: _366  and  _368
REMARK  161  A    between atoms: _368  and  _369
REMARK  162  A    between atoms: _368  and  _371
REMARK  163  A    between atoms: _371  and  _372
REMARK  164  A    between atoms: _372  and  _373
REMARK  165  A    between atoms: _373  and  _374
REMARK  166  A    between atoms: _383  and  _385
REMARK  167  A    between atoms: _385  and  _386
REMARK  168  A    between atoms: _385  and  _388
REMARK  169  A    between atoms: _388  and  _389
REMARK  170  A    between atoms: _392  and  _394
REMARK  171  A    between atoms: _394  and  _395
REMARK  172  A    between atoms: _394  and  _397
REMARK  173  A    between atoms: _397  and  _398
REMARK  174  A    between atoms: _398  and  _399
REMARK  175  A    between atoms: _399  and  _400
REMARK  176  A    between atoms: _409  and  _411
REMARK  177  A    between atoms: _411  and  _412
REMARK  178  A    between atoms: _411  and  _414
REMARK  179  A    between atoms: _414  and  _415
REMARK                            x       y       z     vdW  Elec       q    Type
REMARK                         _______ _______ _______ _____ _____    ______ ____
ROOT
ATOM      1  CA  ASP A   1      10.986  -5.361   0.027  0.00  0.00    +0.144 C 
ENDROOT
BRANCH   1   2
ATOM      2  N   ASP A   1      10.964  -6.559   0.836  0.00  0.00    -0.239 NA
ATOM      3  H   ASP A   1      11.354  -6.532   1.800  0.00  0.00    +0.142 HD
ENDBRANCH   1   2
BRANCH   1   4
ATOM      4  C   ASP A   1      12.355  -5.185  -0.629  0.00  0.00    +0.225 C 
ATOM      5  O   ASP A   1      13.317  -4.744   0.017  0.00  0.00    -0.287 OA
ENDBRANCH   1   4
BRANCH   1   6
ATOM      6  CB  ASP A   1      10.682  -4.162   0.903  0.00  0.00    +0.139 C 
BRANCH   6   7
ATOM      7  CG  ASP A   1      10.585  -2.887   0.119  0.00  0.00    +0.367 C 
ATOM      8  OD2 ASP A   1      10.352  -1.845   0.761  0.00  0.00    -0.246 OA
ATOM      9  OD1 ASP A   1      10.737  -2.924  -1.125  0.00  0.00    -0.246 OA
ENDBRANCH   6   7
ENDBRANCH   1   6
TORSDOF 4
REMARK  Name = ../refined-set-2016/3c52/3c52_pocket.pdb
REMARK  179 active torsions:
REMARK  status: ('A' for Active; 'I' for Inactive)
REMARK    1  A    between atoms: _1  and  _3
REMARK    2  A    between atoms: _3  and  _4
REMARK    3  A    between atoms: _7  and  _9
REMARK    4  A    between atoms: _9  and  _10
REMARK    5  A    between atoms: _9  and  _12
REMARK    6  A    between atoms: _12  and  _13
REMARK    7  A    between atoms: _19  and  _21
REMARK    8  A    between atoms: _21  and  _22
REMARK    9  A    between atoms: _21  and  _24
REMARK   10  A    between atoms: _24  and  _25
REMARK   11  A    between atoms: _30  and  _32
REMARK   12  A    between atoms: _32  and  _33
REMARK   13  A    between atoms: _32  and  _35
REMARK   14  A    between atoms: _35  and  _36
REMARK   15  A    between atoms: _36  and  _37
REMARK   16  A    between atoms: _42  and  _44
REMARK   17  A    between atoms: _44  and  _45
REMARK   18  A    between atoms: _44  and  _47
REMARK   19  A    between atoms: _47  and  _48
REMARK   20  A    between atoms: _50  and  _52
REMARK   21  A    between atoms: _52  and  _53
REMARK   22  A    between atoms: _52  and  _55
REMARK   23  A    between atoms: _55  and  _56
REMARK   24  A    between atoms: _61  and  _63
REMARK   25  A    between atoms: _63  and  _64
REMARK   26  A    between atoms: _63  and  _66
REMARK   27  A    between atoms: _66  and  _67
REMARK   28  A    between atoms: _70  and  _72
REMARK   29  A    between atoms: _72  and  _73
REMARK   30  A    between atoms: _72  and  _75
REMARK   31  A    between atoms: _75  and  _76
REMARK   32  A    between atoms: _79  and  _81
REMARK   33  A    between atoms: _81  and  _82
REMARK   34  A    between atoms: _81  and  _84
REMARK   35  A    between atoms: _84  and  _85
REMARK   36  A    between atoms: _89  and  ZN_421
REMARK   37  A    between atoms: _90  and  _92
REMARK   38  A    between atoms: _92  and  _93
REMARK   39  A    between atoms: _92  and  _95
REMARK   40  A    between atoms: _95  and  _96
REMARK   41  A    between atoms: _96  and  _97
REMARK   42  A    between atoms: _99  and  _101
REMARK   43  A    between atoms: _101  and  _102
REMARK   44  A    between atoms: _101  and  _104
REMARK   45  A    between atoms: _104  and  _105
REMARK   46  A    between atoms: _108  and  _110
REMARK   47  A    between atoms: _110  and  _111
REMARK   48  A    between atoms: _110  and  _113
REMARK   49  A    between atoms: _113  and  _114
REMARK   50  A    between atoms: _114  and  _115
REMARK   51  A    between atoms: _118  and  _120
REMARK   52  A    between atoms: _120  and  _121
REMARK   53  A    between atoms: _120  and  _123
REMARK   54  A    between atoms: _123  and  _124
REMARK   55  A    between atoms: _124  and  _125
REMARK   56  A    between atoms: _128  and  _130
REMARK   57  A    between atoms: _130  and  _131
REMARK   58  A    between atoms: _130  and  _133
REMARK   59  A    between atoms: _133  and  _134
REMARK   60  A    between atoms: _137  and  _139
REMARK   61  A    between atoms: _139  and  _140
REMARK   62  A    between atoms: _139  and  _142
REMARK   63  A    between atoms: _142  and  _143
REMARK   64  A    between atoms: _146  and  _148
REMARK   65  A    between atoms: _148  and  _149
REMARK   66  A    between atoms: _148  and  _151
REMARK   67  A    between atoms: _151  and  _152
REMARK   68  A    between atoms: _154  and  _156
REMARK   69  A    between atoms: _156  and  _157
REMARK   70  A    between atoms: _156  and  _159
REMARK   71  A    between atoms: _159  and  _160
REMARK   72  A    between atoms: _164  and  ZN_421
REMARK   73  A    between atoms: _165  and  _167
REMARK   74  A    between atoms: _167  and  _168
REMARK   75  A    between atoms: _170  and  _172
REMARK   76  A    between atoms: _172  and  _173
REMARK   77  A    between atoms: _176  and  _178
REMARK   78  A    between atoms: _178  and  _179
REMARK   79  A    between atoms: _178  and  _181
REMARK   80  A    between atoms: _181  and  _182
REMARK   81  A    between atoms: _188  and  _190
REMARK   82  A    between atoms: _190  and  _191
REMARK   83  A    between atoms: _190  and  _193
REMARK   84  A    between atoms: _193  and  _194
REMARK   85  A    between atoms: _194  and  _195
REMARK   86  A    between atoms: _195  and  _196
REMARK   87  A    between atoms: _196  and  _197
REMARK   88  A    between atoms: _201  and  _203
REMARK   89  A    between atoms: _203  and  _204
REMARK   90  A    between atoms: _203  and  _206
REMARK   91  A    between atoms: _209  and  _211
REMARK   92  A    between atoms: _211  and  _212
REMARK   93  A    between atoms: _211  and  _214
REMARK   94  A    between atoms: _214  and  _215
REMARK   95  A    between atoms: _218  and  _220
REMARK   96  A    between atoms: _220  and  _221
REMARK   97  A    between atoms: _220  and  _223
REMARK   98  A    between atoms: _223  and  _224
REMARK   99  A    between atoms: _225  and  ZN_421
REMARK  100  A    between atoms: _229  and  _231
REMARK  101  A    between atoms: _231  and  _232
REMARK  102  A    between atoms: _234  and  _236
REMARK  103  A    between atoms: _236  and  _237
REMARK  104  A    between atoms: _240  and  _242
REMARK  105  A    between atoms: _242  and  _243
REMARK  106  A    between atoms: _242  and  _245
REMARK  107  A    between atoms: _245  and  _246
REMARK  108  A    between atoms: _248  and  _250
REMARK  109  A    between atoms: _250  and  _251
REMARK  110  A    between atoms: _254  and  _256
REMARK  111  A    between atoms: _256  and  _257
REMARK  112  A    between atoms: _256  and  _259
REMARK  113  A    between atoms: _259  and  _260
REMARK  114  A    between atoms: _263  and  _265
REMARK  115  A    between atoms: _265  and  _266
REMARK  116  A    between atoms: _265  and  _268
REMARK  117  A    between atoms: _268  and  _269
REMARK  118  A    between atoms: _269  and  _270
REMARK  119  A    between atoms: _270  and  _271
REMARK  120  A    between atoms: _271  and  _272
REMARK  121  A    between atoms: _276  and  _278
REMARK  122  A    between atoms: _278  and  _279
REMARK  123  A    between atoms: _281  and  _283
REMARK  124  A    between atoms: _283  and  _284
REMARK  125  A    between atoms: _283  and  _286
REMARK  126  A    between atoms: _289  and  _291
REMARK  127  A    between atoms: _291  and  _292
REMARK  128  A    between atoms: _291  and  _294
REMARK  129  A    between atoms: _294  and  _295
REMARK  130  A    between atoms: _295  and  _296
REMARK  131  A    between atoms: _296  and  _297
REMARK  132  A    between atoms: _297  and  _298
REMARK  133  A    between atoms: _302  and  _304
REMARK  134  A    between atoms: _304  and  _305
REMARK  135  A    between atoms: _304  and  _307
REMARK  136  A    between atoms: _310  and  _312
REMARK  137  A    between atoms: _312  and  _313
REMARK  138  A    between atoms: _312  and  _315
REMARK  139  A    between atoms: _315  and  _316
REMARK  140  A    between atoms: _321  and  _323
REMARK  141  A    between atoms: _323  and  _324
REMARK  142  A    between atoms: _323  and  _326
REMARK  143  A    between atoms: _326  and  _327
REMARK  144  A    between atoms: _330  and  _332
REMARK  145  A    between atoms: _332  and  _333
REMARK  146  A    between atoms: _332  and  _335
REMARK  147  A    between atoms: _335  and  _336
REMARK  148  A    between atoms: _339  and  _341
REMARK  149  A    between atoms: _341  and  _342
REMARK  150  A    between atoms: _341  and  _344
REMARK  151  A    between atoms: _344  and  _345
REMARK  152  A    between atoms: _348  and  _350
REMARK  153  A    between atoms: _350  and  _351
REMARK  154  A    between atoms: _350  and  _353
REMARK  155  A    between atoms: _353  and  _354
REMARK  156  A    between atoms: _357  and  _359
REMARK  157  A    between atoms: _359  and  _360
REMARK  158  A    between atoms: _359  and  _362
REMARK  159  A    between atoms: _362  and  _363
REMARK  160  A    between atoms: _366  and  _368
REMARK  161  A    between atoms: _368  and  _369
REMARK  162  A    between atoms: _368  and  _371
REMARK  163  A    between atoms: _371  and  _372
REMARK  164  A    between atoms: _372  and  _373
REMARK  165  A    between atoms: _373  and  _374
REMARK  166  A    between atoms: _383  and  _385
REMARK  167  A    between atoms: _385  and  _386
REMARK  168  A    between atoms: _385  and  _388
REMARK  169  A    between atoms: _388  and  _389
REMARK  170  A    between atoms: _392  and  _394
REMARK  171  A    between atoms: _394  and  _395
REMARK  172  A    between atoms: _394  and  _397
REMARK  173  A    between atoms: _397  and  _398
REMARK  174  A    between atoms: _398  and  _399
REMARK  175  A    between atoms: _399  and  _400
REMARK  176  A    between atoms: _409  and  _411
REMARK  177  A    between atoms: _411  and  _412
REMARK  178  A    between atoms: _411  and  _414
REMARK  179  A    between atoms: _414  and  _415
REMARK                            x       y       z     vdW  Elec       q    Type
REMARK                         _______ _______ _______ _____ _____    ______ ____
ROOT
ATOM      1  CA  GLU A   1       4.510 -10.077   0.011  0.00  0.00    +0.134 C 
ENDROOT
BRANCH   1   2
ATOM      2  N   GLU A   1       4.745 -11.238   0.848  0.00  0.00    -0.239 NA
ATOM      3  H   GLU A   1       5.232 -11.106   1.757  0.00  0.00    +0.142 HD
ENDBRANCH   1   2
BRANCH   1   4
ATOM      4  C   GLU A   1       5.825  -9.623  -0.636  0.00  0.00    +0.224 C 
ATOM      5  O   GLU A   1       6.901  -9.868  -0.087  0.00  0.00    -0.287 OA
ENDBRANCH   1   4
BRANCH   1   6
ATOM      6  CB  GLU A   1       3.940  -8.952   0.877  0.00  0.00    +0.037 C 
BRANCH   6   7
ATOM      7  CG  GLU A   1       3.729  -7.652   0.134  0.00  0.00    +0.116 C 
BRANCH   7   8
ATOM      8  CD  GLU A   1       3.183  -6.551   1.030  0.00  0.00    +0.365 C 
ATOM      9  OE2 GLU A   1       2.487  -6.856   2.016  0.00  0.00    -0.246 OA
ATOM     10  OE1 GLU A   1       3.437  -5.366   0.732  0.00  0.00    -0.246 OA
ENDBRANCH   7   8
ENDBRANCH   6   7
ENDBRANCH   1   6
TORSDOF 5
REMARK  Name = ../refined-set-2016/3c52/3c52_pocket.pdb
REMARK  179 active torsions:
REMARK  status: ('A' for Active; 'I' for Inactive)
REMARK    1  A    between atoms: _1  and  _3
REMARK    2  A    between atoms: _3  and  _4
REMARK    3  A    between atoms: _7  and  _9
REMARK    4  A    between atoms: _9  and  _10
REMARK    5  A    between atoms: _9  and  _12
REMARK    6  A    between atoms: _12  and  _13
REMARK    7  A    between atoms: _19  and  _21
REMARK    8  A    between atoms: _21  and  _22
REMARK    9  A    between atoms: _21  and  _24
REMARK   10  A    between atoms: _24  and  _25
REMARK   11  A    between atoms: _30  and  _32
REMARK   12  A    between atoms: _32  and  _33
REMARK   13  A    between atoms: _32  and  _35
REMARK   14  A    between atoms: _35  and  _36
REMARK   15  A    between atoms: _36  and  _37
REMARK   16  A    between atoms: _42  and  _44
REMARK   17  A    between atoms: _44  and  _45
REMARK   18  A    between atoms: _44  and  _47
REMARK   19  A    between atoms: _47  and  _48
REMARK   20  A    between atoms: _50  and  _52
REMARK   21  A    between atoms: _52  and  _53
REMARK   22  A    between atoms: _52  and  _55
REMARK   23  A    between atoms: _55  and  _56
REMARK   24  A    between atoms: _61  and  _63
REMARK   25  A    between atoms: _63  and  _64
REMARK   26  A    between atoms: _63  and  _66
REMARK   27  A    between atoms: _66  and  _67
REMARK   28  A    between atoms: _70  and  _72
REMARK   29  A    between atoms: _72  and  _73
REMARK   30  A    between atoms: _72  and  _75
REMARK   31  A    between atoms: _75  and  _76
REMARK   32  A    between atoms: _79  and  _81
REMARK   33  A    between atoms: _81  and  _82
REMARK   34  A    between atoms: _81  and  _84
REMARK   35  A    between atoms: _84  and  _85
REMARK   36  A    between atoms: _89  and  ZN_421
REMARK   37  A    between atoms: _90  and  _92
REMARK   38  A    between atoms: _92  and  _93
REMARK   39  A    between atoms: _92  and  _95
REMARK   40  A    between atoms: _95  and  _96
REMARK   41  A    between atoms: _96  and  _97
REMARK   42  A    between atoms: _99  and  _101
REMARK   43  A    between atoms: _101  and  _102
REMARK   44  A    between atoms: _101  and  _104
REMARK   45  A    between atoms: _104  and  _105
REMARK   46  A    between atoms: _108  and  _110
REMARK   47  A    between atoms: _110  and  _111
REMARK   48  A    between atoms: _110  and  _113
REMARK   49  A    between atoms: _113  and  _114
REMARK   50  A    between atoms: _114  and  _115
REMARK   51  A    between atoms: _118  and  _120
REMARK   52  A    between atoms: _120  and  _121
REMARK   53  A    between atoms: _120  and  _123
REMARK   54  A    between atoms: _123  and  _124
REMARK   55  A    between atoms: _124  and  _125
REMARK   56  A    between atoms: _128  and  _130
REMARK   57  A    between atoms: _130  and  _131
REMARK   58  A    between atoms: _130  and  _133
REMARK   59  A    between atoms: _133  and  _134
REMARK   60  A    between atoms: _137  and  _139
REMARK   61  A    between atoms: _139  and  _140
REMARK   62  A    between atoms: _139  and  _142
REMARK   63  A    between atoms: _142  and  _143
REMARK   64  A    between atoms: _146  and  _148
REMARK   65  A    between atoms: _148  and  _149
REMARK   66  A    between atoms: _148  and  _151
REMARK   67  A    between atoms: _151  and  _152
REMARK   68  A    between atoms: _154  and  _156
REMARK   69  A    between atoms: _156  and  _157
REMARK   70  A    between atoms: _156  and  _159
REMARK   71  A    between atoms: _159  and  _160
REMARK   72  A    between atoms: _164  and  ZN_421
REMARK   73  A    between atoms: _165  and  _167
REMARK   74  A    between atoms: _167  and  _168
REMARK   75  A    between atoms: _170  and  _172
REMARK   76  A    between atoms: _172  and  _173
REMARK   77  A    between atoms: _176  and  _178
REMARK   78  A    between atoms: _178  and  _179
REMARK   79  A    between atoms: _178  and  _181
REMARK   80  A    between atoms: _181  and  _182
REMARK   81  A    between atoms: _188  and  _190
REMARK   82  A    between atoms: _190  and  _191
REMARK   83  A    between atoms: _190  and  _193
REMARK   84  A    between atoms: _193  and  _194
REMARK   85  A    between atoms: _194  and  _195
REMARK   86  A    between atoms: _195  and  _196
REMARK   87  A    between atoms: _196  and  _197
REMARK   88  A    between atoms: _201  and  _203
REMARK   89  A    between atoms: _203  and  _204
REMARK   90  A    between atoms: _203  and  _206
REMARK   91  A    between atoms: _209  and  _211
REMARK   92  A    between atoms: _211  and  _212
REMARK   93  A    between atoms: _211  and  _214
REMARK   94  A    between atoms: _214  and  _215
REMARK   95  A    between atoms: _218  and  _220
REMARK   96  A    between atoms: _220  and  _221
REMARK   97  A    between atoms: _220  and  _223
REMARK   98  A    between atoms: _223  and  _224
REMARK   99  A    between atoms: _225  and  ZN_421
REMARK  100  A    between atoms: _229  and  _231
REMARK  101  A    between atoms: _231  and  _232
REMARK  102  A    between atoms: _234  and  _236
REMARK  103  A    between atoms: _236  and  _237
REMARK  104  A    between atoms: _240  and  _242
REMARK  105  A    between atoms: _242  and  _243
REMARK  106  A    between atoms: _242  and  _245
REMARK  107  A    between atoms: _245  and  _246
REMARK  108  A    between atoms: _248  and  _250
REMARK  109  A    between atoms: _250  and  _251
REMARK  110  A    between atoms: _254  and  _256
REMARK  111  A    between atoms: _256  and  _257
REMARK  112  A    between atoms: _256  and  _259
REMARK  113  A    between atoms: _259  and  _260
REMARK  114  A    between atoms: _263  and  _265
REMARK  115  A    between atoms: _265  and  _266
REMARK  116  A    between atoms: _265  and  _268
REMARK  117  A    between atoms: _268  and  _269
REMARK  118  A    between atoms: _269  and  _270
REMARK  119  A    between atoms: _270  and  _271
REMARK  120  A    between atoms: _271  and  _272
REMARK  121  A    between atoms: _276  and  _278
REMARK  122  A    between atoms: _278  and  _279
REMARK  123  A    between atoms: _281  and  _283
REMARK  124  A    between atoms: _283  and  _284
REMARK  125  A    between atoms: _283  and  _286
REMARK  126  A    between atoms: _289  and  _291
REMARK  127  A    between atoms: _291  and  _292
REMARK  128  A    between atoms: _291  and  _294
REMARK  129  A    between atoms: _294  and  _295
REMARK  130  A    between atoms: _295  and  _296
REMARK  131  A    between atoms: _296  and  _297
REMARK  132  A    between atoms: _297  and  _298
REMARK  133  A    between atoms: _302  and  _304
REMARK  134  A    between atoms: _304  and  _305
REMARK  135  A    between atoms: _304  and  _307
REMARK  136  A    between atoms: _310  and  _312
REMARK  137  A    between atoms: _312  and  _313
REMARK  138  A    between atoms: _312  and  _315
REMARK  139  A    between atoms: _315  and  _316
REMARK  140  A    between atoms: _321  and  _323
REMARK  141  A    between atoms: _323  and  _324
REMARK  142  A    between atoms: _323  and  _326
REMARK  143  A    between atoms: _326  and  _327
REMARK  144  A    between atoms: _330  and  _332
REMARK  145  A    between atoms: _332  and  _333
REMARK  146  A    between atoms: _332  and  _335
REMARK  147  A    between atoms: _335  and  _336
REMARK  148  A    between atoms: _339  and  _341
REMARK  149  A    between atoms: _341  and  _342
REMARK  150  A    between atoms: _341  and  _344
REMARK  151  A    between atoms: _344  and  _345
REMARK  152  A    between atoms: _348  and  _350
REMARK  153  A    between atoms: _350  and  _351
REMARK  154  A    between atoms: _350  and  _353
REMARK  155  A    between atoms: _353  and  _354
REMARK  156  A    between atoms: _357  and  _359
REMARK  157  A    between atoms: _359  and  _360
REMARK  158  A    between atoms: _359  and  _362
REMARK  159  A    between atoms: _362  and  _363
REMARK  160  A    between atoms: _366  and  _368
REMARK  161  A    between atoms: _368  and  _369
REMARK  162  A    between atoms: _368  and  _371
REMARK  163  A    between atoms: _371  and  _372
REMARK  164  A    between atoms: _372  and  _373
REMARK  165  A    between atoms: _373  and  _374
REMARK  166  A    between atoms: _383  and  _385
REMARK  167  A    between atoms: _385  and  _386
REMARK  168  A    between atoms: _385  and  _388
REMARK  169  A    between atoms: _388  and  _389
REMARK  170  A    between atoms: _392  and  _394
REMARK  171  A    between atoms: _394  and  _395
REMARK  172  A    between atoms: _394  and  _397
REMARK  173  A    between atoms: _397  and  _398
REMARK  174  A    between atoms: _398  and  _399
REMARK  175  A    between atoms: _399  and  _400
REMARK  176  A    between atoms: _409  and  _411
REMARK  177  A    between atoms: _411  and  _412
REMARK  178  A    between atoms: _411  and  _414
REMARK  179  A    between atoms: _414  and  _415
REMARK                            x       y       z     vdW  Elec       q    Type
REMARK                         _______ _______ _______ _____ _____    ______ ____
ROOT
ATOM      1  CA  GLU A   1       6.962  -4.918  -4.096  0.00  0.00    +0.134 C 
ENDROOT
BRANCH   1   2
ATOM      2  N   GLU A   1       7.320  -6.193  -3.484  0.00  0.00    -0.239 NA
ATOM      3  H   GLU A   1       8.324  -6.461  -3.447  0.00  0.00    +0.142 HD
ENDBRANCH   1   2
BRANCH   1   4
ATOM      4  C   GLU A   1       7.584  -4.746  -5.474  0.00  0.00    +0.224 C 
ATOM      5  O   GLU A   1       8.683  -5.233  -5.736  0.00  0.00    -0.287 OA
ENDBRANCH   1   4
BRANCH   1   6
ATOM      6  CB  GLU A   1       7.364  -3.746  -3.197  0.00  0.00    +0.037 C 
BRANCH   6   7
ATOM      7  CG  GLU A   1       7.059  -2.382  -3.805  0.00  0.00    +0.116 C 
BRANCH   7   8
ATOM      8  CD  GLU A   1       7.324  -1.234  -2.851  0.00  0.00    +0.365 C 
ATOM      9  OE2 GLU A   1       7.477  -1.494  -1.640  0.00  0.00    -0.246 OA
ATOM     10  OE1 GLU A   1       7.374  -0.072  -3.312  0.00  0.00    -0.246 OA
ENDBRANCH   7   8
ENDBRANCH   6   7
ENDBRANCH   1   6
TORSDOF 5
REMARK  Name = ../refined-set-2016/3c52/3c52_pocket.pdb
REMARK  179 active torsions:
REMARK  status: ('A' for Active; 'I' for Inactive)
REMARK    1  A    between atoms: _1  and  _3
REMARK    2  A    between atoms: _3  and  _4
REMARK    3  A    between atoms: _7  and  _9
REMARK    4  A    between atoms: _9  and  _10
REMARK    5  A    between atoms: _9  and  _12
REMARK    6  A    between atoms: _12  and  _13
REMARK    7  A    between atoms: _19  and  _21
REMARK    8  A    between atoms: _21  and  _22
REMARK    9  A    between atoms: _21  and  _24
REMARK   10  A    between atoms: _24  and  _25
REMARK   11  A    between atoms: _30  and  _32
REMARK   12  A    between atoms: _32  and  _33
REMARK   13  A    between atoms: _32  and  _35
REMARK   14  A    between atoms: _35  and  _36
REMARK   15  A    between atoms: _36  and  _37
REMARK   16  A    between atoms: _42  and  _44
REMARK   17  A    between atoms: _44  and  _45
REMARK   18  A    between atoms: _44  and  _47
REMARK   19  A    between atoms: _47  and  _48
REMARK   20  A    between atoms: _50  and  _52
REMARK   21  A    between atoms: _52  and  _53
REMARK   22  A    between atoms: _52  and  _55
REMARK   23  A    between atoms: _55  and  _56
REMARK   24  A    between atoms: _61  and  _63
REMARK   25  A    between atoms: _63  and  _64
REMARK   26  A    between atoms: _63  and  _66
REMARK   27  A    between atoms: _66  and  _67
REMARK   28  A    between atoms: _70  and  _72
REMARK   29  A    between atoms: _72  and  _73
REMARK   30  A    between atoms: _72  and  _75
REMARK   31  A    between atoms: _75  and  _76
REMARK   32  A    between atoms: _79  and  _81
REMARK   33  A    between atoms: _81  and  _82
REMARK   34  A    between atoms: _81  and  _84
REMARK   35  A    between atoms: _84  and  _85
REMARK   36  A    between atoms: _89  and  ZN_421
REMARK   37  A    between atoms: _90  and  _92
REMARK   38  A    between atoms: _92  and  _93
REMARK   39  A    between atoms: _92  and  _95
REMARK   40  A    between atoms: _95  and  _96
REMARK   41  A    between atoms: _96  and  _97
REMARK   42  A    between atoms: _99  and  _101
REMARK   43  A    between atoms: _101  and  _102
REMARK   44  A    between atoms: _101  and  _104
REMARK   45  A    between atoms: _104  and  _105
REMARK   46  A    between atoms: _108  and  _110
REMARK   47  A    between atoms: _110  and  _111
REMARK   48  A    between atoms: _110  and  _113
REMARK   49  A    between atoms: _113  and  _114
REMARK   50  A    between atoms: _114  and  _115
REMARK   51  A    between atoms: _118  and  _120
REMARK   52  A    between atoms: _120  and  _121
REMARK   53  A    between atoms: _120  and  _123
REMARK   54  A    between atoms: _123  and  _124
REMARK   55  A    between atoms: _124  and  _125
REMARK   56  A    between atoms: _128  and  _130
REMARK   57  A    between atoms: _130  and  _131
REMARK   58  A    between atoms: _130  and  _133
REMARK   59  A    between atoms: _133  and  _134
REMARK   60  A    between atoms: _137  and  _139
REMARK   61  A    between atoms: _139  and  _140
REMARK   62  A    between atoms: _139  and  _142
REMARK   63  A    between atoms: _142  and  _143
REMARK   64  A    between atoms: _146  and  _148
REMARK   65  A    between atoms: _148  and  _149
REMARK   66  A    between atoms: _148  and  _151
REMARK   67  A    between atoms: _151  and  _152
REMARK   68  A    between atoms: _154  and  _156
REMARK   69  A    between atoms: _156  and  _157
REMARK   70  A    between atoms: _156  and  _159
REMARK   71  A    between atoms: _159  and  _160
REMARK   72  A    between atoms: _164  and  ZN_421
REMARK   73  A    between atoms: _165  and  _167
REMARK   74  A    between atoms: _167  and  _168
REMARK   75  A    between atoms: _170  and  _172
REMARK   76  A    between atoms: _172  and  _173
REMARK   77  A    between atoms: _176  and  _178
REMARK   78  A    between atoms: _178  and  _179
REMARK   79  A    between atoms: _178  and  _181
REMARK   80  A    between atoms: _181  and  _182
REMARK   81  A    between atoms: _188  and  _190
REMARK   82  A    between atoms: _190  and  _191
REMARK   83  A    between atoms: _190  and  _193
REMARK   84  A    between atoms: _193  and  _194
REMARK   85  A    between atoms: _194  and  _195
REMARK   86  A    between atoms: _195  and  _196
REMARK   87  A    between atoms: _196  and  _197
REMARK   88  A    between atoms: _201  and  _203
REMARK   89  A    between atoms: _203  and  _204
REMARK   90  A    between atoms: _203  and  _206
REMARK   91  A    between atoms: _209  and  _211
REMARK   92  A    between atoms: _211  and  _212
REMARK   93  A    between atoms: _211  and  _214
REMARK   94  A    between atoms: _214  and  _215
REMARK   95  A    between atoms: _218  and  _220
REMARK   96  A    between atoms: _220  and  _221
REMARK   97  A    between atoms: _220  and  _223
REMARK   98  A    between atoms: _223  and  _224
REMARK   99  A    between atoms: _225  and  ZN_421
REMARK  100  A    between atoms: _229  and  _231
REMARK  101  A    between atoms: _231  and  _232
REMARK  102  A    between atoms: _234  and  _236
REMARK  103  A    between atoms: _236  and  _237
REMARK  104  A    between atoms: _240  and  _242
REMARK  105  A    between atoms: _242  and  _243
REMARK  106  A    between atoms: _242  and  _245
REMARK  107  A    between atoms: _245  and  _246
REMARK  108  A    between atoms: _248  and  _250
REMARK  109  A    between atoms: _250  and  _251
REMARK  110  A    between atoms: _254  and  _256
REMARK  111  A    between atoms: _256  and  _257
REMARK  112  A    between atoms: _256  and  _259
REMARK  113  A    between atoms: _259  and  _260
REMARK  114  A    between atoms: _263  and  _265
REMARK  115  A    between atoms: _265  and  _266
REMARK  116  A    between atoms: _265  and  _268
REMARK  117  A    between atoms: _268  and  _269
REMARK  118  A    between atoms: _269  and  _270
REMARK  119  A    between atoms: _270  and  _271
REMARK  120  A    between atoms: _271  and  _272
REMARK  121  A    between atoms: _276  and  _278
REMARK  122  A    between atoms: _278  and  _279
REMARK  123  A    between atoms: _281  and  _283
REMARK  124  A    between atoms: _283  and  _284
REMARK  125  A    between atoms: _283  and  _286
REMARK  126  A    between atoms: _289  and  _291
REMARK  127  A    between atoms: _291  and  _292
REMARK  128  A    between atoms: _291  and  _294
REMARK  129  A    between atoms: _294  and  _295
REMARK  130  A    between atoms: _295  and  _296
REMARK  131  A    between atoms: _296  and  _297
REMARK  132  A    between atoms: _297  and  _298
REMARK  133  A    between atoms: _302  and  _304
REMARK  134  A    between atoms: _304  and  _305
REMARK  135  A    between atoms: _304  and  _307
REMARK  136  A    between atoms: _310  and  _312
REMARK  137  A    between atoms: _312  and  _313
REMARK  138  A    between atoms: _312  and  _315
REMARK  139  A    between atoms: _315  and  _316
REMARK  140  A    between atoms: _321  and  _323
REMARK  141  A    between atoms: _323  and  _324
REMARK  142  A    between atoms: _323  and  _326
REMARK  143  A    between atoms: _326  and  _327
REMARK  144  A    between atoms: _330  and  _332
REMARK  145  A    between atoms: _332  and  _333
REMARK  146  A    between atoms: _332  and  _335
REMARK  147  A    between atoms: _335  and  _336
REMARK  148  A    between atoms: _339  and  _341
REMARK  149  A    between atoms: _341  and  _342
REMARK  150  A    between atoms: _341  and  _344
REMARK  151  A    between atoms: _344  and  _345
REMARK  152  A    between atoms: _348  and  _350
REMARK  153  A    between atoms: _350  and  _351
REMARK  154  A    between atoms: _350  and  _353
REMARK  155  A    between atoms: _353  and  _354
REMARK  156  A    between atoms: _357  and  _359
REMARK  157  A    between atoms: _359  and  _360
REMARK  158  A    between atoms: _359  and  _362
REMARK  159  A    between atoms: _362  and  _363
REMARK  160  A    between atoms: _366  and  _368
REMARK  161  A    between atoms: _368  and  _369
REMARK  162  A    between atoms: _368  and  _371
REMARK  163  A    between atoms: _371  and  _372
REMARK  164  A    between atoms: _372  and  _373
REMARK  165  A    between atoms: _373  and  _374
REMARK  166  A    between atoms: _383  and  _385
REMARK  167  A    between atoms: _385  and  _386
REMARK  168  A    between atoms: _385  and  _388
REMARK  169  A    between atoms: _388  and  _389
REMARK  170  A    between atoms: _392  and  _394
REMARK  171  A    between atoms: _394  and  _395
REMARK  172  A    between atoms: _394  and  _397
REMARK  173  A    between atoms: _397  and  _398
REMARK  174  A    between atoms: _398  and  _399
REMARK  175  A    between atoms: _399  and  _400
REMARK  176  A    between atoms: _409  and  _411
REMARK  177  A    between atoms: _411  and  _412
REMARK  178  A    between atoms: _411  and  _414
REMARK  179  A    between atoms: _414  and  _415
REMARK                            x       y       z     vdW  Elec       q    Type
REMARK                         _______ _______ _______ _____ _____    ______ ____
ROOT
ATOM      1  CA  LEU A   1       6.901   4.546  -3.386  0.00  0.00    +0.133 C 
ENDROOT
BRANCH   1   2
ATOM      2  N   LEU A   1       7.927   3.702  -3.989  0.00  0.00    -0.239 NA
ATOM      3  H   LEU A   1       8.623   3.238  -3.371  0.00  0.00    +0.142 HD
ENDBRANCH   1   2
BRANCH   1   4
ATOM      4  C   LEU A   1       7.181   6.047  -3.419  0.00  0.00    +0.224 C 
ATOM      5  O   LEU A   1       7.597   6.644  -2.426  0.00  0.00    -0.287 OA
ENDBRANCH   1   4
BRANCH   1   6
ATOM      6  CB  LEU A   1       6.601   4.084  -1.959  0.00  0.00    +0.025 C 
BRANCH   6   7
ATOM      7  CG  LEU A   1       5.883   2.735  -1.870  0.00  0.00    +0.002 C 
ATOM      8  CD2 LEU A   1       5.994   2.144  -0.475  0.00  0.00    +0.000 C 
ATOM      9  CD1 LEU A   1       4.428   2.876  -2.293  0.00  0.00    +0.000 C 
ENDBRANCH   6   7
ENDBRANCH   1   6
TORSDOF 4
REMARK  Name = ../refined-set-2016/3c52/3c52_pocket.pdb
REMARK  179 active torsions:
REMARK  status: ('A' for Active; 'I' for Inactive)
REMARK    1  A    between atoms: _1  and  _3
REMARK    2  A    between atoms: _3  and  _4
REMARK    3  A    between atoms: _7  and  _9
REMARK    4  A    between atoms: _9  and  _10
REMARK    5  A    between atoms: _9  and  _12
REMARK    6  A    between atoms: _12  and  _13
REMARK    7  A    between atoms: _19  and  _21
REMARK    8  A    between atoms: _21  and  _22
REMARK    9  A    between atoms: _21  and  _24
REMARK   10  A    between atoms: _24  and  _25
REMARK   11  A    between atoms: _30  and  _32
REMARK   12  A    between atoms: _32  and  _33
REMARK   13  A    between atoms: _32  and  _35
REMARK   14  A    between atoms: _35  and  _36
REMARK   15  A    between atoms: _36  and  _37
REMARK   16  A    between atoms: _42  and  _44
REMARK   17  A    between atoms: _44  and  _45
REMARK   18  A    between atoms: _44  and  _47
REMARK   19  A    between atoms: _47  and  _48
REMARK   20  A    between atoms: _50  and  _52
REMARK   21  A    between atoms: _52  and  _53
REMARK   22  A    between atoms: _52  and  _55
REMARK   23  A    between atoms: _55  and  _56
REMARK   24  A    between atoms: _61  and  _63
REMARK   25  A    between atoms: _63  and  _64
REMARK   26  A    between atoms: _63  and  _66
REMARK   27  A    between atoms: _66  and  _67
REMARK   28  A    between atoms: _70  and  _72
REMARK   29  A    between atoms: _72  and  _73
REMARK   30  A    between atoms: _72  and  _75
REMARK   31  A    between atoms: _75  and  _76
REMARK   32  A    between atoms: _79  and  _81
REMARK   33  A    between atoms: _81  and  _82
REMARK   34  A    between atoms: _81  and  _84
REMARK   35  A    between atoms: _84  and  _85
REMARK   36  A    between atoms: _89  and  ZN_421
REMARK   37  A    between atoms: _90  and  _92
REMARK   38  A    between atoms: _92  and  _93
REMARK   39  A    between atoms: _92  and  _95
REMARK   40  A    between atoms: _95  and  _96
REMARK   41  A    between atoms: _96  and  _97
REMARK   42  A    between atoms: _99  and  _101
REMARK   43  A    between atoms: _101  and  _102
REMARK   44  A    between atoms: _101  and  _104
REMARK   45  A    between atoms: _104  and  _105
REMARK   46  A    between atoms: _108  and  _110
REMARK   47  A    between atoms: _110  and  _111
REMARK   48  A    between atoms: _110  and  _113
REMARK   49  A    between atoms: _113  and  _114
REMARK   50  A    between atoms: _114  and  _115
REMARK   51  A    between atoms: _118  and  _120
REMARK   52  A    between atoms: _120  and  _121
REMARK   53  A    between atoms: _120  and  _123
REMARK   54  A    between atoms: _123  and  _124
REMARK   55  A    between atoms: _124  and  _125
REMARK   56  A    between atoms: _128  and  _130
REMARK   57  A    between atoms: _130  and  _131
REMARK   58  A    between atoms: _130  and  _133
REMARK   59  A    between atoms: _133  and  _134
REMARK   60  A    between atoms: _137  and  _139
REMARK   61  A    between atoms: _139  and  _140
REMARK   62  A    between atoms: _139  and  _142
REMARK   63  A    between atoms: _142  and  _143
REMARK   64  A    between atoms: _146  and  _148
REMARK   65  A    between atoms: _148  and  _149
REMARK   66  A    between atoms: _148  and  _151
REMARK   67  A    between atoms: _151  and  _152
REMARK   68  A    between atoms: _154  and  _156
REMARK   69  A    between atoms: _156  and  _157
REMARK   70  A    between atoms: _156  and  _159
REMARK   71  A    between atoms: _159  and  _160
REMARK   72  A    between atoms: _164  and  ZN_421
REMARK   73  A    between atoms: _165  and  _167
REMARK   74  A    between atoms: _167  and  _168
REMARK   75  A    between atoms: _170  and  _172
REMARK   76  A    between atoms: _172  and  _173
REMARK   77  A    between atoms: _176  and  _178
REMARK   78  A    between atoms: _178  and  _179
REMARK   79  A    between atoms: _178  and  _181
REMARK   80  A    between atoms: _181  and  _182
REMARK   81  A    between atoms: _188  and  _190
REMARK   82  A    between atoms: _190  and  _191
REMARK   83  A    between atoms: _190  and  _193
REMARK   84  A    between atoms: _193  and  _194
REMARK   85  A    between atoms: _194  and  _195
REMARK   86  A    between atoms: _195  and  _196
REMARK   87  A    between atoms: _196  and  _197
REMARK   88  A    between atoms: _201  and  _203
REMARK   89  A    between atoms: _203  and  _204
REMARK   90  A    between atoms: _203  and  _206
REMARK   91  A    between atoms: _209  and  _211
REMARK   92  A    between atoms: _211  and  _212
REMARK   93  A    between atoms: _211  and  _214
REMARK   94  A    between atoms: _214  and  _215
REMARK   95  A    between atoms: _218  and  _220
REMARK   96  A    between atoms: _220  and  _221
REMARK   97  A    between atoms: _220  and  _223
REMARK   98  A    between atoms: _223  and  _224
REMARK   99  A    between atoms: _225  and  ZN_421
REMARK  100  A    between atoms: _229  and  _231
REMARK  101  A    between atoms: _231  and  _232
REMARK  102  A    between atoms: _234  and  _236
REMARK  103  A    between atoms: _236  and  _237
REMARK  104  A    between atoms: _240  and  _242
REMARK  105  A    between atoms: _242  and  _243
REMARK  106  A    between atoms: _242  and  _245
REMARK  107  A    between atoms: _245  and  _246
REMARK  108  A    between atoms: _248  and  _250
REMARK  109  A    between atoms: _250  and  _251
REMARK  110  A    between atoms: _254  and  _256
REMARK  111  A    between atoms: _256  and  _257
REMARK  112  A    between atoms: _256  and  _259
REMARK  113  A    between atoms: _259  and  _260
REMARK  114  A    between atoms: _263  and  _265
REMARK  115  A    between atoms: _265  and  _266
REMARK  116  A    between atoms: _265  and  _268
REMARK  117  A    between atoms: _268  and  _269
REMARK  118  A    between atoms: _269  and  _270
REMARK  119  A    between atoms: _270  and  _271
REMARK  120  A    between atoms: _271  and  _272
REMARK  121  A    between atoms: _276  and  _278
REMARK  122  A    between atoms: _278  and  _279
REMARK  123  A    between atoms: _281  and  _283
REMARK  124  A    between atoms: _283  and  _284
REMARK  125  A    between atoms: _283  and  _286
REMARK  126  A    between atoms: _289  and  _291
REMARK  127  A    between atoms: _291  and  _292
REMARK  128  A    between atoms: _291  and  _294
REMARK  129  A    between atoms: _294  and  _295
REMARK  130  A    between atoms: _295  and  _296
REMARK  131  A    between atoms: _296  and  _297
REMARK  132  A    between atoms: _297  and  _298
REMARK  133  A    between atoms: _302  and  _304
REMARK  134  A    between atoms: _304  and  _305
REMARK  135  A    between atoms: _304  and  _307
REMARK  136  A    between atoms: _310  and  _312
REMARK  137  A    between atoms: _312  and  _313
REMARK  138  A    between atoms: _312  and  _315
REMARK  139  A    between atoms: _315  and  _316
REMARK  140  A    between atoms: _321  and  _323
REMARK  141  A    between atoms: _323  and  _324
REMARK  142  A    between atoms: _323  and  _326
REMARK  143  A    between atoms: _326  and  _327
REMARK  144  A    between atoms: _330  and  _332
REMARK  145  A    between atoms: _332  and  _333
REMARK  146  A    between atoms: _332  and  _335
REMARK  147  A    between atoms: _335  and  _336
REMARK  148  A    between atoms: _339  and  _341
REMARK  149  A    between atoms: _341  and  _342
REMARK  150  A    between atoms: _341  and  _344
REMARK  151  A    between atoms: _344  and  _345
REMARK  152  A    between atoms: _348  and  _350
REMARK  153  A    between atoms: _350  and  _351
REMARK  154  A    between atoms: _350  and  _353
REMARK  155  A    between atoms: _353  and  _354
REMARK  156  A    between atoms: _357  and  _359
REMARK  157  A    between atoms: _359  and  _360
REMARK  158  A    between atoms: _359  and  _362
REMARK  159  A    between atoms: _362  and  _363
REMARK  160  A    between atoms: _366  and  _368
REMARK  161  A    between atoms: _368  and  _369
REMARK  162  A    between atoms: _368  and  _371
REMARK  163  A    between atoms: _371  and  _372
REMARK  164  A    between atoms: _372  and  _373
REMARK  165  A    between atoms: _373  and  _374
REMARK  166  A    between atoms: _383  and  _385
REMARK  167  A    between atoms: _385  and  _386
REMARK  168  A    between atoms: _385  and  _388
REMARK  169  A    between atoms: _388  and  _389
REMARK  170  A    between atoms: _392  and  _394
REMARK  171  A    between atoms: _394  and  _395
REMARK  172  A    between atoms: _394  and  _397
REMARK  173  A    between atoms: _397  and  _398
REMARK  174  A    between atoms: _398  and  _399
REMARK  175  A    between atoms: _399  and  _400
REMARK  176  A    between atoms: _409  and  _411
REMARK  177  A    between atoms: _411  and  _412
REMARK  178  A    between atoms: _411  and  _414
REMARK  179  A    between atoms: _414  and  _415
REMARK                            x       y       z     vdW  Elec       q    Type
REMARK                         _______ _______ _______ _____ _____    ______ ____
ROOT
ATOM      1  C   LYS A   1      -2.023  13.518   2.528  0.00  0.00    +0.238 C 
ATOM      2  N   GLY A   2      -2.974  12.758   3.057  0.00  0.00    -0.296 N 
ATOM      3  H   GLY A   2      -3.693  13.192   3.670  0.00  0.00    +0.150 HD
ATOM      4  O   LYS A   1      -1.113  13.067   1.832  0.00  0.00    -0.274 OA
ENDROOT
BRANCH   1   5
ATOM      5  CA  LYS A   1      -2.113  15.003   2.825  0.00  0.00    +0.145 C 
BRANCH   5   6
ATOM      6  N   LYS A   1      -1.059  15.430   3.737  0.00  0.00    -0.238 NA
ATOM      7  H   LYS A   1      -0.231  14.820   3.890  0.00  0.00    +0.142 HD
ENDBRANCH   5   6
BRANCH   5   8
ATOM      8  CB  LYS A   1      -2.045  15.811   1.525  0.00  0.00    +0.026 C 
BRANCH   8   9
ATOM      9  CG  LYS A   1      -3.153  15.505   0.519  0.00  0.00    -0.000 C 
BRANCH   9  10
ATOM     10  CD  LYS A   1      -4.496  16.075   0.952  0.00  0.00    -0.024 C 
BRANCH  10  11
ATOM     11  CE  LYS A   1      -5.539  15.890  -0.144  0.00  0.00    -0.086 C 
BRANCH  11  12
ATOM     12  NZ  LYS A   1      -6.833  16.569   0.159  0.00  0.00    +0.380 N 
ATOM     13  HZ1 LYS A   1      -7.228  16.182   1.040  0.00  0.00    -0.089 HD
ATOM     14  HZ2 LYS A   1      -6.670  17.590   0.270  0.00  0.00    -0.089 HD
ATOM     15  HZ3 LYS A   1      -7.500  16.407  -0.623  0.00  0.00    -0.089 HD
ENDBRANCH  11  12
ENDBRANCH  10  11
ENDBRANCH   9  10
ENDBRANCH   8   9
ENDBRANCH   5   8
ENDBRANCH   1   5
BRANCH   2  16
ATOM     16  CA  GLY A   2      -3.028  11.332   2.795  0.00  0.00    +0.176 C 
BRANCH  16  17
ATOM     17  C   GLY A   2      -3.893  11.014   1.586  0.00  0.00    +0.243 C 
ATOM     18  N   VAL A   3      -4.127   9.727   1.368  0.00  0.00    -0.298 N 
ATOM     19  H   VAL A   3      -3.626   9.025   1.949  0.00  0.00    +0.150 HD
ATOM     20  O   GLY A   2      -4.333  11.910   0.869  0.00  0.00    -0.273 OA
BRANCH  18  21
ATOM     21  CA  VAL A   3      -5.050   9.256   0.355  0.00  0.00    +0.137 C 
BRANCH  21  22
ATOM     22  CB  VAL A   3      -4.845   7.746   0.117  0.00  0.00    +0.026 C 
ATOM     23  CG2 VAL A   3      -3.383   7.456  -0.256  0.00  0.00    +0.002 C 
ATOM     24  CG1 VAL A   3      -5.810   7.228  -0.949  0.00  0.00    +0.002 C 
ENDBRANCH  21  22
BRANCH  21  25
ATOM     25  C   VAL A   3      -6.515   9.525   0.758  0.00  0.00    +0.227 C 
ATOM     26  O   VAL A   3      -6.949   9.154   1.845  0.00  0.00    -0.286 OA
ENDBRANCH  21  25
ENDBRANCH  18  21
ENDBRANCH  16  17
ENDBRANCH   2  16
TORSDOF 12
REMARK  Name = ../refined-set-2016/3c52/3c52_pocket.pdb
REMARK  179 active torsions:
REMARK  status: ('A' for Active; 'I' for Inactive)
REMARK    1  A    between atoms: _1  and  _3
REMARK    2  A    between atoms: _3  and  _4
REMARK    3  A    between atoms: _7  and  _9
REMARK    4  A    between atoms: _9  and  _10
REMARK    5  A    between atoms: _9  and  _12
REMARK    6  A    between atoms: _12  and  _13
REMARK    7  A    between atoms: _19  and  _21
REMARK    8  A    between atoms: _21  and  _22
REMARK    9  A    between atoms: _21  and  _24
REMARK   10  A    between atoms: _24  and  _25
REMARK   11  A    between atoms: _30  and  _32
REMARK   12  A    between atoms: _32  and  _33
REMARK   13  A    between atoms: _32  and  _35
REMARK   14  A    between atoms: _35  and  _36
REMARK   15  A    between atoms: _36  and  _37
REMARK   16  A    between atoms: _42  and  _44
REMARK   17  A    between atoms: _44  and  _45
REMARK   18  A    between atoms: _44  and  _47
REMARK   19  A    between atoms: _47  and  _48
REMARK   20  A    between atoms: _50  and  _52
REMARK   21  A    between atoms: _52  and  _53
REMARK   22  A    between atoms: _52  and  _55
REMARK   23  A    between atoms: _55  and  _56
REMARK   24  A    between atoms: _61  and  _63
REMARK   25  A    between atoms: _63  and  _64
REMARK   26  A    between atoms: _63  and  _66
REMARK   27  A    between atoms: _66  and  _67
REMARK   28  A    between atoms: _70  and  _72
REMARK   29  A    between atoms: _72  and  _73
REMARK   30  A    between atoms: _72  and  _75
REMARK   31  A    between atoms: _75  and  _76
REMARK   32  A    between atoms: _79  and  _81
REMARK   33  A    between atoms: _81  and  _82
REMARK   34  A    between atoms: _81  and  _84
REMARK   35  A    between atoms: _84  and  _85
REMARK   36  A    between atoms: _89  and  ZN_421
REMARK   37  A    between atoms: _90  and  _92
REMARK   38  A    between atoms: _92  and  _93
REMARK   39  A    between atoms: _92  and  _95
REMARK   40  A    between atoms: _95  and  _96
REMARK   41  A    between atoms: _96  and  _97
REMARK   42  A    between atoms: _99  and  _101
REMARK   43  A    between atoms: _101  and  _102
REMARK   44  A    between atoms: _101  and  _104
REMARK   45  A    between atoms: _104  and  _105
REMARK   46  A    between atoms: _108  and  _110
REMARK   47  A    between atoms: _110  and  _111
REMARK   48  A    between atoms: _110  and  _113
REMARK   49  A    between atoms: _113  and  _114
REMARK   50  A    between atoms: _114  and  _115
REMARK   51  A    between atoms: _118  and  _120
REMARK   52  A    between atoms: _120  and  _121
REMARK   53  A    between atoms: _120  and  _123
REMARK   54  A    between atoms: _123  and  _124
REMARK   55  A    between atoms: _124  and  _125
REMARK   56  A    between atoms: _128  and  _130
REMARK   57  A    between atoms: _130  and  _131
REMARK   58  A    between atoms: _130  and  _133
REMARK   59  A    between atoms: _133  and  _134
REMARK   60  A    between atoms: _137  and  _139
REMARK   61  A    between atoms: _139  and  _140
REMARK   62  A    between atoms: _139  and  _142
REMARK   63  A    between atoms: _142  and  _143
REMARK   64  A    between atoms: _146  and  _148
REMARK   65  A    between atoms: _148  and  _149
REMARK   66  A    between atoms: _148  and  _151
REMARK   67  A    between atoms: _151  and  _152
REMARK   68  A    between atoms: _154  and  _156
REMARK   69  A    between atoms: _156  and  _157
REMARK   70  A    between atoms: _156  and  _159
REMARK   71  A    between atoms: _159  and  _160
REMARK   72  A    between atoms: _164  and  ZN_421
REMARK   73  A    between atoms: _165  and  _167
REMARK   74  A    between atoms: _167  and  _168
REMARK   75  A    between atoms: _170  and  _172
REMARK   76  A    between atoms: _172  and  _173
REMARK   77  A    between atoms: _176  and  _178
REMARK   78  A    between atoms: _178  and  _179
REMARK   79  A    between atoms: _178  and  _181
REMARK   80  A    between atoms: _181  and  _182
REMARK   81  A    between atoms: _188  and  _190
REMARK   82  A    between atoms: _190  and  _191
REMARK   83  A    between atoms: _190  and  _193
REMARK   84  A    between atoms: _193  and  _194
REMARK   85  A    between atoms: _194  and  _195
REMARK   86  A    between atoms: _195  and  _196
REMARK   87  A    between atoms: _196  and  _197
REMARK   88  A    between atoms: _201  and  _203
REMARK   89  A    between atoms: _203  and  _204
REMARK   90  A    between atoms: _203  and  _206
REMARK   91  A    between atoms: _209  and  _211
REMARK   92  A    between atoms: _211  and  _212
REMARK   93  A    between atoms: _211  and  _214
REMARK   94  A    between atoms: _214  and  _215
REMARK   95  A    between atoms: _218  and  _220
REMARK   96  A    between atoms: _220  and  _221
REMARK   97  A    between atoms: _220  and  _223
REMARK   98  A    between atoms: _223  and  _224
REMARK   99  A    between atoms: _225  and  ZN_421
REMARK  100  A    between atoms: _229  and  _231
REMARK  101  A    between atoms: _231  and  _232
REMARK  102  A    between atoms: _234  and  _236
REMARK  103  A    between atoms: _236  and  _237
REMARK  104  A    between atoms: _240  and  _242
REMARK  105  A    between atoms: _242  and  _243
REMARK  106  A    between atoms: _242  and  _245
REMARK  107  A    between atoms: _245  and  _246
REMARK  108  A    between atoms: _248  and  _250
REMARK  109  A    between atoms: _250  and  _251
REMARK  110  A    between atoms: _254  and  _256
REMARK  111  A    between atoms: _256  and  _257
REMARK  112  A    between atoms: _256  and  _259
REMARK  113  A    between atoms: _259  and  _260
REMARK  114  A    between atoms: _263  and  _265
REMARK  115  A    between atoms: _265  and  _266
REMARK  116  A    between atoms: _265  and  _268
REMARK  117  A    between atoms: _268  and  _269
REMARK  118  A    between atoms: _269  and  _270
REMARK  119  A    between atoms: _270  and  _271
REMARK  120  A    between atoms: _271  and  _272
REMARK  121  A    between atoms: _276  and  _278
REMARK  122  A    between atoms: _278  and  _279
REMARK  123  A    between atoms: _281  and  _283
REMARK  124  A    between atoms: _283  and  _284
REMARK  125  A    between atoms: _283  and  _286
REMARK  126  A    between atoms: _289  and  _291
REMARK  127  A    between atoms: _291  and  _292
REMARK  128  A    between atoms: _291  and  _294
REMARK  129  A    between atoms: _294  and  _295
REMARK  130  A    between atoms: _295  and  _296
REMARK  131  A    between atoms: _296  and  _297
REMARK  132  A    between atoms: _297  and  _298
REMARK  133  A    between atoms: _302  and  _304
REMARK  134  A    between atoms: _304  and  _305
REMARK  135  A    between atoms: _304  and  _307
REMARK  136  A    between atoms: _310  and  _312
REMARK  137  A    between atoms: _312  and  _313
REMARK  138  A    between atoms: _312  and  _315
REMARK  139  A    between atoms: _315  and  _316
REMARK  140  A    between atoms: _321  and  _323
REMARK  141  A    between atoms: _323  and  _324
REMARK  142  A    between atoms: _323  and  _326
REMARK  143  A    between atoms: _326  and  _327
REMARK  144  A    between atoms: _330  and  _332
REMARK  145  A    between atoms: _332  and  _333
REMARK  146  A    between atoms: _332  and  _335
REMARK  147  A    between atoms: _335  and  _336
REMARK  148  A    between atoms: _339  and  _341
REMARK  149  A    between atoms: _341  and  _342
REMARK  150  A    between atoms: _341  and  _344
REMARK  151  A    between atoms: _344  and  _345
REMARK  152  A    between atoms: _348  and  _350
REMARK  153  A    between atoms: _350  and  _351
REMARK  154  A    between atoms: _350  and  _353
REMARK  155  A    between atoms: _353  and  _354
REMARK  156  A    between atoms: _357  and  _359
REMARK  157  A    between atoms: _359  and  _360
REMARK  158  A    between atoms: _359  and  _362
REMARK  159  A    between atoms: _362  and  _363
REMARK  160  A    between atoms: _366  and  _368
REMARK  161  A    between atoms: _368  and  _369
REMARK  162  A    between atoms: _368  and  _371
REMARK  163  A    between atoms: _371  and  _372
REMARK  164  A    between atoms: _372  and  _373
REMARK  165  A    between atoms: _373  and  _374
REMARK  166  A    between atoms: _383  and  _385
REMARK  167  A    between atoms: _385  and  _386
REMARK  168  A    between atoms: _385  and  _388
REMARK  169  A    between atoms: _388  and  _389
REMARK  170  A    between atoms: _392  and  _394
REMARK  171  A    between atoms: _394  and  _395
REMARK  172  A    between atoms: _394  and  _397
REMARK  173  A    between atoms: _397  and  _398
REMARK  174  A    between atoms: _398  and  _399
REMARK  175  A    between atoms: _399  and  _400
REMARK  176  A    between atoms: _409  and  _411
REMARK  177  A    between atoms: _411  and  _412
REMARK  178  A    between atoms: _411  and  _414
REMARK  179  A    between atoms: _414  and  _415
REMARK                            x       y       z     vdW  Elec       q    Type
REMARK                         _______ _______ _______ _____ _____    ______ ____
ROOT
ATOM      1  C   ASP A   5       0.151   4.882  10.661  0.00  0.00    +0.241 C 
ATOM      2  O   ASP A   5      -0.237   5.146  11.789  0.00  0.00    -0.273 OA
ATOM      3  N   THR A   6       0.556   5.812   9.804  0.00  0.00    -0.295 N 
ATOM      4  H   THR A   6       0.886   5.517   8.863  0.00  0.00    +0.150 HD
ENDROOT
BRANCH   3   5
ATOM      5  CA  THR A   6       0.555   7.228  10.135  0.00  0.00    +0.176 C 
BRANCH   5   6
ATOM      6  C   THR A   6      -0.740   7.705  10.802  0.00  0.00    +0.243 C 
ATOM      7  O   THR A   6      -0.717   8.498  11.753  0.00  0.00    -0.273 OA
ATOM      8  N   ASP A   7      -1.871   7.239  10.295  0.00  0.00    -0.296 N 
ATOM      9  H   ASP A   7      -1.838   6.564   9.504  0.00  0.00    +0.150 HD
BRANCH   8  10
ATOM     10  CA  ASP A   7      -3.167   7.659  10.831  0.00  0.00    +0.160 C 
BRANCH  10  11
ATOM     11  C   ASP A   7      -3.318   7.292  12.306  0.00  0.00    +0.241 C 
ATOM     12  O   ASP A   7      -3.806   8.094  13.100  0.00  0.00    -0.273 OA
ATOM     13  N   LEU A   8      -2.882   6.086  12.656  0.00  0.00    -0.297 N 
ATOM     14  H   LEU A   8      -2.474   5.473  11.921  0.00  0.00    +0.150 HD
BRANCH  13  15
ATOM     15  CA  LEU A   8      -2.949   5.586  14.017  0.00  0.00    +0.149 C 
BRANCH  15  16
ATOM     16  C   LEU A   8      -2.088   6.418  14.976  0.00  0.00    +0.241 C 
ATOM     17  O   LEU A   8      -2.548   6.840  16.051  0.00  0.00    -0.273 OA
ATOM     18  N   ARG A   9      -0.847   6.663  14.560  0.00  0.00    -0.297 N 
ATOM     19  H   ARG A   9      -0.557   6.305  13.628  0.00  0.00    +0.150 HD
BRANCH  18  20
ATOM     20  CA  ARG A   9       0.126   7.411  15.352  0.00  0.00    +0.149 C 
BRANCH  20  21
ATOM     21  C   ARG A   9      -0.297   8.854  15.619  0.00  0.00    +0.241 C 
ATOM     22  O   ARG A   9      -0.174   9.352  16.743  0.00  0.00    -0.273 OA
ATOM     23  N   ILE A  10      -0.801   9.524  14.588  0.00  0.00    -0.298 N 
ATOM     24  H   ILE A  10      -0.826   9.074  13.651  0.00  0.00    +0.150 HD
BRANCH  23  25
ATOM     25  CA  ILE A  10      -1.319  10.877  14.746  0.00  0.00    +0.137 C 
BRANCH  25  26
ATOM     26  C   ILE A  10      -2.501  10.920  15.704  0.00  0.00    +0.227 C 
ATOM     27  O   ILE A  10      -2.554  11.762  16.596  0.00  0.00    -0.286 OA
ENDBRANCH  25  26
BRANCH  25  28
ATOM     28  CB  ILE A  10      -1.756  11.479  13.409  0.00  0.00    +0.026 C 
ATOM     29  CG2 ILE A  10      -2.467  12.802  13.646  0.00  0.00    +0.002 C 
BRANCH  28  30
ATOM     30  CG1 ILE A  10      -0.543  11.658  12.504  0.00  0.00    +0.002 C 
ATOM     31  CD1 ILE A  10      -0.886  12.181  11.155  0.00  0.00    +0.000 C 
ENDBRANCH  28  30
ENDBRANCH  25  28
ENDBRANCH  23  25
ENDBRANCH  20  21
BRANCH  20  32
ATOM     32  CB  ARG A   9       1.496   7.373  14.655  0.00  0.00    +0.033 C 
BRANCH  32  33
ATOM     33  CG  ARG A   9       2.124   5.980  14.624  0.00  0.00    +0.045 C 
BRANCH  33  34
ATOM     34  CD  ARG A   9       2.923   5.714  13.349  0.00  0.00    +0.174 C 
BRANCH  34  35
ATOM     35  NE  ARG A   9       4.167   6.457  13.238  0.00  0.00    -0.265 N 
ATOM     36  HE  ARG A   9       4.287   7.304  13.829  0.00  0.00    +0.259 HD
ATOM     37  CZ  ARG A   9       5.162   6.114  12.421  0.00  0.00    +0.342 C 
ATOM     38  NH2 ARG A   9       6.276   6.830  12.371  0.00  0.00    -0.292 N 
ATOM     39 HH21 ARG A   9       6.381   7.671  12.974  0.00  0.00    +0.255 HD
ATOM     40 HH22 ARG A   9       7.045   6.551  11.729  0.00  0.00    +0.255 HD
ATOM     41  NH1 ARG A   9       5.046   5.046  11.647  0.00  0.00    -0.292 N 
ATOM     42 HH11 ARG A   9       4.178   4.474  11.677  0.00  0.00    +0.255 HD
ATOM     43 HH12 ARG A   9       5.823   4.779  11.010  0.00  0.00    +0.255 HD
ENDBRANCH  34  35
ENDBRANCH  33  34
ENDBRANCH  32  33
ENDBRANCH  20  32
ENDBRANCH  18  20
ENDBRANCH  15  16
BRANCH  15  44
ATOM     44  CB  LEU A   8      -2.498   4.133  14.044  0.00  0.00    +0.029 C 
BRANCH  44  45
ATOM     45  CG  LEU A   8      -3.510   3.084  13.574  0.00  0.00    +0.002 C 
ATOM     46  CD2 LEU A   8      -2.838   1.737  13.341  0.00  0.00    +0.000 C 
ATOM     47  CD1 LEU A   8      -4.280   3.540  12.336  0.00  0.00    +0.000 C 
ENDBRANCH  44  45
ENDBRANCH  15  44
ENDBRANCH  13  15
ENDBRANCH  10  11
BRANCH  10  48
ATOM     48  CB  ASP A   7      -4.307   7.070  10.006  0.00  0.00    +0.143 C 
BRANCH  48  49
ATOM     49  CG  ASP A   7      -4.668   7.939   8.802  0.00  0.00    +0.367 C 
ATOM     50  OD2 ASP A   7      -4.066   9.028   8.653  0.00  0.00    -0.246 OA
ATOM     51  OD1 ASP A   7      -5.553   7.534   8.011  0.00  0.00    -0.246 OA
ENDBRANCH  48  49
ENDBRANCH  10  48
ENDBRANCH   8  10
ENDBRANCH   5   6
BRANCH   5  52
ATOM     52  CB  THR A   6       0.799   8.069   8.862  0.00  0.00    +0.137 C 
ATOM     53  CG2 THR A   6       0.616   9.554   9.156  0.00  0.00    +0.034 C 
BRANCH  52  54
ATOM     54  OG1 THR A   6       2.128   7.830   8.375  0.00  0.00    -0.382 OA
ATOM     55  HG1 THR A   6       2.784   8.087   9.070  0.00  0.00    +0.210 HD
ENDBRANCH  52  54
ENDBRANCH   5  52
ENDBRANCH   3   5
BRANCH   1  56
ATOM     56  CA  ASP A   5       0.175   3.434  10.162  0.00  0.00    +0.160 C 
BRANCH  56  59
ATOM     57  C   THR A   4      -1.401   2.146   8.849  0.00  0.00    +0.243 C 
ATOM     58  O   THR A   4      -1.423   1.269   9.703  0.00  0.00    -0.273 OA
ATOM     59  N   ASP A   5      -0.688   3.252   8.996  0.00  0.00    -0.296 N 
ATOM     60  H   ASP A   5      -0.742   3.999   8.274  0.00  0.00    +0.150 HD
BRANCH  57  61
ATOM     61  CA  THR A   4      -2.213   2.000   7.570  0.00  0.00    +0.176 C 
BRANCH  61  63
ATOM     62  C   ASN A   3      -1.562   0.832   5.538  0.00  0.00    +0.241 C 
ATOM     63  N   THR A   4      -1.783   0.818   6.849  0.00  0.00    -0.295 N 
ATOM     64  H   THR A   4      -1.643  -0.069   7.374  0.00  0.00    +0.150 HD
ATOM     65  O   ASN A   3      -1.569   1.860   4.860  0.00  0.00    -0.273 OA
BRANCH  62  66
ATOM     66  CA  ASN A   3      -1.277  -0.515   4.897  0.00  0.00    +0.158 C 
BRANCH  66  69
ATOM     67  C   VAL A   2      -3.476  -1.064   4.012  0.00  0.00    +0.241 C 
ATOM     68  O   VAL A   2      -3.991  -1.021   5.145  0.00  0.00    -0.273 OA
ATOM     69  N   ASN A   3      -2.188  -0.809   3.794  0.00  0.00    -0.297 N 
ATOM     70  H   ASN A   3      -1.823  -0.819   2.820  0.00  0.00    +0.150 HD
BRANCH  67  71
ATOM     71  CA  VAL A   2      -4.305  -1.445   2.779  0.00  0.00    +0.148 C 
BRANCH  71  73
ATOM     72  C   LYS A   1      -4.051  -3.640   1.734  0.00  0.00    +0.238 C 
ATOM     73  N   VAL A   2      -4.504  -2.890   2.736  0.00  0.00    -0.297 N 
ATOM     74  H   VAL A   2      -5.017  -3.350   3.515  0.00  0.00    +0.150 HD
ATOM     75  O   LYS A   1      -3.383  -3.193   0.798  0.00  0.00    -0.274 OA
BRANCH  72  76
ATOM     76  CA  LYS A   1      -4.441  -5.107   1.777  0.00  0.00    +0.145 C 
BRANCH  76  77
ATOM     77  N   LYS A   1      -5.172  -5.383   0.544  0.00  0.00    -0.238 NA
ATOM     78  H   LYS A   1      -4.748  -5.087  -0.358  0.00  0.00    +0.142 HD
ENDBRANCH  76  77
BRANCH  76  79
ATOM     79  CB  LYS A   1      -3.210  -6.001   1.882  0.00  0.00    +0.026 C 
BRANCH  79  80
ATOM     80  CG  LYS A   1      -2.394  -5.859   3.171  0.00  0.00    -0.000 C 
BRANCH  80  81
ATOM     81  CD  LYS A   1      -1.362  -6.960   3.266  0.00  0.00    -0.024 C 
BRANCH  81  82
ATOM     82  CE  LYS A   1      -0.323  -6.706   4.373  0.00  0.00    -0.086 C 
BRANCH  82  83
ATOM     83  NZ  LYS A   1       0.437  -5.445   4.151  0.00  0.00    +0.380 N 
ATOM     84  HZ1 LYS A   1       1.124  -5.316   4.921  0.00  0.00    -0.089 HD
ATOM     85  HZ2 LYS A   1      -0.223  -4.642   4.136  0.00  0.00    -0.089 HD
ATOM     86  HZ3 LYS A   1       0.939  -5.500   3.242  0.00  0.00    -0.089 HD
ENDBRANCH  82  83
ENDBRANCH  81  82
ENDBRANCH  80  81
ENDBRANCH  79  80
ENDBRANCH  76  79
ENDBRANCH  72  76
ENDBRANCH  71  73
BRANCH  71  87
ATOM     87  CB  VAL A   2      -5.655  -0.705   2.790  0.00  0.00    +0.027 C 
ATOM     88  CG2 VAL A   2      -5.450   0.791   2.620  0.00  0.00    +0.002 C 
ATOM     89  CG1 VAL A   2      -6.565  -1.258   1.675  0.00  0.00    +0.002 C 
ENDBRANCH  71  87
ENDBRANCH  67  71
ENDBRANCH  66  69
BRANCH  66  90
ATOM     90  CB  ASN A   3       0.169  -0.562   4.430  0.00  0.00    +0.114 C 
BRANCH  90  91
ATOM     91  CG  ASN A   3       0.592  -1.944   3.991  0.00  0.00    +0.222 C 
ATOM     92  OD1 ASN A   3      -0.213  -2.863   3.927  0.00  0.00    -0.275 OA
ATOM     93  ND2 ASN A   3       1.862  -2.094   3.683  0.00  0.00    -0.329 N 
ATOM     94 HD21 ASN A   3       2.513  -1.286   3.751  0.00  0.00    +0.145 HD
ATOM     95 HD22 ASN A   3       2.215  -3.021   3.371  0.00  0.00    +0.145 HD
ENDBRANCH  90  91
ENDBRANCH  66  90
ENDBRANCH  62  66
ENDBRANCH  61  63
BRANCH  61  96
ATOM     96  CB  THR A   4      -3.697   1.862   7.951  0.00  0.00    +0.137 C 
ATOM     97  CG2 THR A   4      -4.314   3.213   8.291  0.00  0.00    +0.034 C 
BRANCH  96  98
ATOM     98  OG1 THR A   4      -4.420   1.270   6.864  0.00  0.00    -0.382 OA
ATOM     99  HG1 THR A   4      -4.045   0.375   6.669  0.00  0.00    +0.210 HD
ENDBRANCH  96  98
ENDBRANCH  61  96
ENDBRANCH  57  61
ENDBRANCH  56  59
BRANCH  56 100
ATOM    100  CB  ASP A   5       1.598   2.999   9.830  0.00  0.00    +0.143 C 
BRANCH 100 101
ATOM    101  CG  ASP A   5       2.523   3.107  11.006  0.00  0.00    +0.367 C 
ATOM    102  OD2 ASP A   5       2.032   3.377  12.126  0.00  0.00    -0.246 OA
ATOM    103  OD1 ASP A   5       3.738   2.915  10.807  0.00  0.00    -0.246 OA
ENDBRANCH 100 101
ENDBRANCH  56 100
ENDBRANCH   1  56
TORSDOF 44
REMARK  Name = ../refined-set-2016/3c52/3c52_pocket.pdb
REMARK  179 active torsions:
REMARK  status: ('A' for Active; 'I' for Inactive)
REMARK    1  A    between atoms: _1  and  _3
REMARK    2  A    between atoms: _3  and  _4
REMARK    3  A    between atoms: _7  and  _9
REMARK    4  A    between atoms: _9  and  _10
REMARK    5  A    between atoms: _9  and  _12
REMARK    6  A    between atoms: _12  and  _13
REMARK    7  A    between atoms: _19  and  _21
REMARK    8  A    between atoms: _21  and  _22
REMARK    9  A    between atoms: _21  and  _24
REMARK   10  A    between atoms: _24  and  _25
REMARK   11  A    between atoms: _30  and  _32
REMARK   12  A    between atoms: _32  and  _33
REMARK   13  A    between atoms: _32  and  _35
REMARK   14  A    between atoms: _35  and  _36
REMARK   15  A    between atoms: _36  and  _37
REMARK   16  A    between atoms: _42  and  _44
REMARK   17  A    between atoms: _44  and  _45
REMARK   18  A    between atoms: _44  and  _47
REMARK   19  A    between atoms: _47  and  _48
REMARK   20  A    between atoms: _50  and  _52
REMARK   21  A    between atoms: _52  and  _53
REMARK   22  A    between atoms: _52  and  _55
REMARK   23  A    between atoms: _55  and  _56
REMARK   24  A    between atoms: _61  and  _63
REMARK   25  A    between atoms: _63  and  _64
REMARK   26  A    between atoms: _63  and  _66
REMARK   27  A    between atoms: _66  and  _67
REMARK   28  A    between atoms: _70  and  _72
REMARK   29  A    between atoms: _72  and  _73
REMARK   30  A    between atoms: _72  and  _75
REMARK   31  A    between atoms: _75  and  _76
REMARK   32  A    between atoms: _79  and  _81
REMARK   33  A    between atoms: _81  and  _82
REMARK   34  A    between atoms: _81  and  _84
REMARK   35  A    between atoms: _84  and  _85
REMARK   36  A    between atoms: _89  and  ZN_421
REMARK   37  A    between atoms: _90  and  _92
REMARK   38  A    between atoms: _92  and  _93
REMARK   39  A    between atoms: _92  and  _95
REMARK   40  A    between atoms: _95  and  _96
REMARK   41  A    between atoms: _96  and  _97
REMARK   42  A    between atoms: _99  and  _101
REMARK   43  A    between atoms: _101  and  _102
REMARK   44  A    between atoms: _101  and  _104
REMARK   45  A    between atoms: _104  and  _105
REMARK   46  A    between atoms: _108  and  _110
REMARK   47  A    between atoms: _110  and  _111
REMARK   48  A    between atoms: _110  and  _113
REMARK   49  A    between atoms: _113  and  _114
REMARK   50  A    between atoms: _114  and  _115
REMARK   51  A    between atoms: _118  and  _120
REMARK   52  A    between atoms: _120  and  _121
REMARK   53  A    between atoms: _120  and  _123
REMARK   54  A    between atoms: _123  and  _124
REMARK   55  A    between atoms: _124  and  _125
REMARK   56  A    between atoms: _128  and  _130
REMARK   57  A    between atoms: _130  and  _131
REMARK   58  A    between atoms: _130  and  _133
REMARK   59  A    between atoms: _133  and  _134
REMARK   60  A    between atoms: _137  and  _139
REMARK   61  A    between atoms: _139  and  _140
REMARK   62  A    between atoms: _139  and  _142
REMARK   63  A    between atoms: _142  and  _143
REMARK   64  A    between atoms: _146  and  _148
REMARK   65  A    between atoms: _148  and  _149
REMARK   66  A    between atoms: _148  and  _151
REMARK   67  A    between atoms: _151  and  _152
REMARK   68  A    between atoms: _154  and  _156
REMARK   69  A    between atoms: _156  and  _157
REMARK   70  A    between atoms: _156  and  _159
REMARK   71  A    between atoms: _159  and  _160
REMARK   72  A    between atoms: _164  and  ZN_421
REMARK   73  A    between atoms: _165  and  _167
REMARK   74  A    between atoms: _167  and  _168
REMARK   75  A    between atoms: _170  and  _172
REMARK   76  A    between atoms: _172  and  _173
REMARK   77  A    between atoms: _176  and  _178
REMARK   78  A    between atoms: _178  and  _179
REMARK   79  A    between atoms: _178  and  _181
REMARK   80  A    between atoms: _181  and  _182
REMARK   81  A    between atoms: _188  and  _190
REMARK   82  A    between atoms: _190  and  _191
REMARK   83  A    between atoms: _190  and  _193
REMARK   84  A    between atoms: _193  and  _194
REMARK   85  A    between atoms: _194  and  _195
REMARK   86  A    between atoms: _195  and  _196
REMARK   87  A    between atoms: _196  and  _197
REMARK   88  A    between atoms: _201  and  _203
REMARK   89  A    between atoms: _203  and  _204
REMARK   90  A    between atoms: _203  and  _206
REMARK   91  A    between atoms: _209  and  _211
REMARK   92  A    between atoms: _211  and  _212
REMARK   93  A    between atoms: _211  and  _214
REMARK   94  A    between atoms: _214  and  _215
REMARK   95  A    between atoms: _218  and  _220
REMARK   96  A    between atoms: _220  and  _221
REMARK   97  A    between atoms: _220  and  _223
REMARK   98  A    between atoms: _223  and  _224
REMARK   99  A    between atoms: _225  and  ZN_421
REMARK  100  A    between atoms: _229  and  _231
REMARK  101  A    between atoms: _231  and  _232
REMARK  102  A    between atoms: _234  and  _236
REMARK  103  A    between atoms: _236  and  _237
REMARK  104  A    between atoms: _240  and  _242
REMARK  105  A    between atoms: _242  and  _243
REMARK  106  A    between atoms: _242  and  _245
REMARK  107  A    between atoms: _245  and  _246
REMARK  108  A    between atoms: _248  and  _250
REMARK  109  A    between atoms: _250  and  _251
REMARK  110  A    between atoms: _254  and  _256
REMARK  111  A    between atoms: _256  and  _257
REMARK  112  A    between atoms: _256  and  _259
REMARK  113  A    between atoms: _259  and  _260
REMARK  114  A    between atoms: _263  and  _265
REMARK  115  A    between atoms: _265  and  _266
REMARK  116  A    between atoms: _265  and  _268
REMARK  117  A    between atoms: _268  and  _269
REMARK  118  A    between atoms: _269  and  _270
REMARK  119  A    between atoms: _270  and  _271
REMARK  120  A    between atoms: _271  and  _272
REMARK  121  A    between atoms: _276  and  _278
REMARK  122  A    between atoms: _278  and  _279
REMARK  123  A    between atoms: _281  and  _283
REMARK  124  A    between atoms: _283  and  _284
REMARK  125  A    between atoms: _283  and  _286
REMARK  126  A    between atoms: _289  and  _291
REMARK  127  A    between atoms: _291  and  _292
REMARK  128  A    between atoms: _291  and  _294
REMARK  129  A    between atoms: _294  and  _295
REMARK  130  A    between atoms: _295  and  _296
REMARK  131  A    between atoms: _296  and  _297
REMARK  132  A    between atoms: _297  and  _298
REMARK  133  A    between atoms: _302  and  _304
REMARK  134  A    between atoms: _304  and  _305
REMARK  135  A    between atoms: _304  and  _307
REMARK  136  A    between atoms: _310  and  _312
REMARK  137  A    between atoms: _312  and  _313
REMARK  138  A    between atoms: _312  and  _315
REMARK  139  A    between atoms: _315  and  _316
REMARK  140  A    between atoms: _321  and  _323
REMARK  141  A    between atoms: _323  and  _324
REMARK  142  A    between atoms: _323  and  _326
REMARK  143  A    between atoms: _326  and  _327
REMARK  144  A    between atoms: _330  and  _332
REMARK  145  A    between atoms: _332  and  _333
REMARK  146  A    between atoms: _332  and  _335
REMARK  147  A    between atoms: _335  and  _336
REMARK  148  A    between atoms: _339  and  _341
REMARK  149  A    between atoms: _341  and  _342
REMARK  150  A    between atoms: _341  and  _344
REMARK  151  A    between atoms: _344  and  _345
REMARK  152  A    between atoms: _348  and  _350
REMARK  153  A    between atoms: _350  and  _351
REMARK  154  A    between atoms: _350  and  _353
REMARK  155  A    between atoms: _353  and  _354
REMARK  156  A    between atoms: _357  and  _359
REMARK  157  A    between atoms: _359  and  _360
REMARK  158  A    between atoms: _359  and  _362
REMARK  159  A    between atoms: _362  and  _363
REMARK  160  A    between atoms: _366  and  _368
REMARK  161  A    between atoms: _368  and  _369
REMARK  162  A    between atoms: _368  and  _371
REMARK  163  A    between atoms: _371  and  _372
REMARK  164  A    between atoms: _372  and  _373
REMARK  165  A    between atoms: _373  and  _374
REMARK  166  A    between atoms: _383  and  _385
REMARK  167  A    between atoms: _385  and  _386
REMARK  168  A    between atoms: _385  and  _388
REMARK  169  A    between atoms: _388  and  _389
REMARK  170  A    between atoms: _392  and  _394
REMARK  171  A    between atoms: _394  and  _395
REMARK  172  A    between atoms: _394  and  _397
REMARK  173  A    between atoms: _397  and  _398
REMARK  174  A    between atoms: _398  and  _399
REMARK  175  A    between atoms: _399  and  _400
REMARK  176  A    between atoms: _409  and  _411
REMARK  177  A    between atoms: _411  and  _412
REMARK  178  A    between atoms: _411  and  _414
REMARK  179  A    between atoms: _414  and  _415
REMARK                            x       y       z     vdW  Elec       q    Type
REMARK                         _______ _______ _______ _____ _____    ______ ____
ROOT
ATOM      1  NE  ARG A   1      -9.132   4.576   6.892  0.00  0.00    -0.265 N 
ATOM      2  HE  ARG A   1     -10.065   4.860   7.255  0.00  0.00    +0.259 HD
ATOM      3  CZ  ARG A   1      -8.107   5.400   7.092  0.00  0.00    +0.342 C 
ATOM      4  NH2 ARG A   1      -8.284   6.542   7.759  0.00  0.00    -0.292 N 
ATOM      5 HH21 ARG A   1      -9.226   6.790   8.124  0.00  0.00    +0.255 HD
ATOM      6 HH22 ARG A   1      -7.480   7.184   7.914  0.00  0.00    +0.255 HD
ATOM      7  NH1 ARG A   1      -6.907   5.082   6.624  0.00  0.00    -0.292 N 
ATOM      8 HH11 ARG A   1      -6.102   5.723   6.778  0.00  0.00    +0.255 HD
ATOM      9 HH12 ARG A   1      -6.771   4.192   6.103  0.00  0.00    +0.255 HD
ENDROOT
BRANCH   1  10
ATOM     10  CD  ARG A   1      -9.028   3.300   6.196  0.00  0.00    +0.174 C 
BRANCH  10  11
ATOM     11  CG  ARG A   1      -8.883   2.142   7.177  0.00  0.00    +0.045 C 
BRANCH  11  12
ATOM     12  CB  ARG A   1      -9.741   2.353   8.431  0.00  0.00    +0.029 C 
BRANCH  12  13
ATOM     13  CA  ARG A   1     -11.247   2.342   8.173  0.00  0.00    +0.133 C 
BRANCH  13  14
ATOM     14  N   ARG A   1     -11.983   2.822   9.344  0.00  0.00    -0.239 NA
ATOM     15  H   ARG A   1     -11.496   2.922  10.257  0.00  0.00    +0.142 HD
ENDBRANCH  13  14
BRANCH  13  16
ATOM     16  C   ARG A   1     -11.716   0.942   7.783  0.00  0.00    +0.224 C 
ATOM     17  O   ARG A   1     -11.737   0.603   6.619  0.00  0.00    -0.287 OA
ENDBRANCH  13  16
ENDBRANCH  12  13
ENDBRANCH  11  12
ENDBRANCH  10  11
ENDBRANCH   1  10
TORSDOF 6
REMARK  Name = ../refined-set-2016/3c52/3c52_pocket.pdb
REMARK  179 active torsions:
REMARK  status: ('A' for Active; 'I' for Inactive)
REMARK    1  A    between atoms: _1  and  _3
REMARK    2  A    between atoms: _3  and  _4
REMARK    3  A    between atoms: _7  and  _9
REMARK    4  A    between atoms: _9  and  _10
REMARK    5  A    between atoms: _9  and  _12
REMARK    6  A    between atoms: _12  and  _13
REMARK    7  A    between atoms: _19  and  _21
REMARK    8  A    between atoms: _21  and  _22
REMARK    9  A    between atoms: _21  and  _24
REMARK   10  A    between atoms: _24  and  _25
REMARK   11  A    between atoms: _30  and  _32
REMARK   12  A    between atoms: _32  and  _33
REMARK   13  A    between atoms: _32  and  _35
REMARK   14  A    between atoms: _35  and  _36
REMARK   15  A    between atoms: _36  and  _37
REMARK   16  A    between atoms: _42  and  _44
REMARK   17  A    between atoms: _44  and  _45
REMARK   18  A    between atoms: _44  and  _47
REMARK   19  A    between atoms: _47  and  _48
REMARK   20  A    between atoms: _50  and  _52
REMARK   21  A    between atoms: _52  and  _53
REMARK   22  A    between atoms: _52  and  _55
REMARK   23  A    between atoms: _55  and  _56
REMARK   24  A    between atoms: _61  and  _63
REMARK   25  A    between atoms: _63  and  _64
REMARK   26  A    between atoms: _63  and  _66
REMARK   27  A    between atoms: _66  and  _67
REMARK   28  A    between atoms: _70  and  _72
REMARK   29  A    between atoms: _72  and  _73
REMARK   30  A    between atoms: _72  and  _75
REMARK   31  A    between atoms: _75  and  _76
REMARK   32  A    between atoms: _79  and  _81
REMARK   33  A    between atoms: _81  and  _82
REMARK   34  A    between atoms: _81  and  _84
REMARK   35  A    between atoms: _84  and  _85
REMARK   36  A    between atoms: _89  and  ZN_421
REMARK   37  A    between atoms: _90  and  _92
REMARK   38  A    between atoms: _92  and  _93
REMARK   39  A    between atoms: _92  and  _95
REMARK   40  A    between atoms: _95  and  _96
REMARK   41  A    between atoms: _96  and  _97
REMARK   42  A    between atoms: _99  and  _101
REMARK   43  A    between atoms: _101  and  _102
REMARK   44  A    between atoms: _101  and  _104
REMARK   45  A    between atoms: _104  and  _105
REMARK   46  A    between atoms: _108  and  _110
REMARK   47  A    between atoms: _110  and  _111
REMARK   48  A    between atoms: _110  and  _113
REMARK   49  A    between atoms: _113  and  _114
REMARK   50  A    between atoms: _114  and  _115
REMARK   51  A    between atoms: _118  and  _120
REMARK   52  A    between atoms: _120  and  _121
REMARK   53  A    between atoms: _120  and  _123
REMARK   54  A    between atoms: _123  and  _124
REMARK   55  A    between atoms: _124  and  _125
REMARK   56  A    between atoms: _128  and  _130
REMARK   57  A    between atoms: _130  and  _131
REMARK   58  A    between atoms: _130  and  _133
REMARK   59  A    between atoms: _133  and  _134
REMARK   60  A    between atoms: _137  and  _139
REMARK   61  A    between atoms: _139  and  _140
REMARK   62  A    between atoms: _139  and  _142
REMARK   63  A    between atoms: _142  and  _143
REMARK   64  A    between atoms: _146  and  _148
REMARK   65  A    between atoms: _148  and  _149
REMARK   66  A    between atoms: _148  and  _151
REMARK   67  A    between atoms: _151  and  _152
REMARK   68  A    between atoms: _154  and  _156
REMARK   69  A    between atoms: _156  and  _157
REMARK   70  A    between atoms: _156  and  _159
REMARK   71  A    between atoms: _159  and  _160
REMARK   72  A    between atoms: _164  and  ZN_421
REMARK   73  A    between atoms: _165  and  _167
REMARK   74  A    between atoms: _167  and  _168
REMARK   75  A    between atoms: _170  and  _172
REMARK   76  A    between atoms: _172  and  _173
REMARK   77  A    between atoms: _176  and  _178
REMARK   78  A    between atoms: _178  and  _179
REMARK   79  A    between atoms: _178  and  _181
REMARK   80  A    between atoms: _181  and  _182
REMARK   81  A    between atoms: _188  and  _190
REMARK   82  A    between atoms: _190  and  _191
REMARK   83  A    between atoms: _190  and  _193
REMARK   84  A    between atoms: _193  and  _194
REMARK   85  A    between atoms: _194  and  _195
REMARK   86  A    between atoms: _195  and  _196
REMARK   87  A    between atoms: _196  and  _197
REMARK   88  A    between atoms: _201  and  _203
REMARK   89  A    between atoms: _203  and  _204
REMARK   90  A    between atoms: _203  and  _206
REMARK   91  A    between atoms: _209  and  _211
REMARK   92  A    between atoms: _211  and  _212
REMARK   93  A    between atoms: _211  and  _214
REMARK   94  A    between atoms: _214  and  _215
REMARK   95  A    between atoms: _218  and  _220
REMARK   96  A    between atoms: _220  and  _221
REMARK   97  A    between atoms: _220  and  _223
REMARK   98  A    between atoms: _223  and  _224
REMARK   99  A    between atoms: _225  and  ZN_421
REMARK  100  A    between atoms: _229  and  _231
REMARK  101  A    between atoms: _231  and  _232
REMARK  102  A    between atoms: _234  and  _236
REMARK  103  A    between atoms: _236  and  _237
REMARK  104  A    between atoms: _240  and  _242
REMARK  105  A    between atoms: _242  and  _243
REMARK  106  A    between atoms: _242  and  _245
REMARK  107  A    between atoms: _245  and  _246
REMARK  108  A    between atoms: _248  and  _250
REMARK  109  A    between atoms: _250  and  _251
REMARK  110  A    between atoms: _254  and  _256
REMARK  111  A    between atoms: _256  and  _257
REMARK  112  A    between atoms: _256  and  _259
REMARK  113  A    between atoms: _259  and  _260
REMARK  114  A    between atoms: _263  and  _265
REMARK  115  A    between atoms: _265  and  _266
REMARK  116  A    between atoms: _265  and  _268
REMARK  117  A    between atoms: _268  and  _269
REMARK  118  A    between atoms: _269  and  _270
REMARK  119  A    between atoms: _270  and  _271
REMARK  120  A    between atoms: _271  and  _272
REMARK  121  A    between atoms: _276  and  _278
REMARK  122  A    between atoms: _278  and  _279
REMARK  123  A    between atoms: _281  and  _283
REMARK  124  A    between atoms: _283  and  _284
REMARK  125  A    between atoms: _283  and  _286
REMARK  126  A    between atoms: _289  and  _291
REMARK  127  A    between atoms: _291  and  _292
REMARK  128  A    between atoms: _291  and  _294
REMARK  129  A    between atoms: _294  and  _295
REMARK  130  A    between atoms: _295  and  _296
REMARK  131  A    between atoms: _296  and  _297
REMARK  132  A    between atoms: _297  and  _298
REMARK  133  A    between atoms: _302  and  _304
REMARK  134  A    between atoms: _304  and  _305
REMARK  135  A    between atoms: _304  and  _307
REMARK  136  A    between atoms: _310  and  _312
REMARK  137  A    between atoms: _312  and  _313
REMARK  138  A    between atoms: _312  and  _315
REMARK  139  A    between atoms: _315  and  _316
REMARK  140  A    between atoms: _321  and  _323
REMARK  141  A    between atoms: _323  and  _324
REMARK  142  A    between atoms: _323  and  _326
REMARK  143  A    between atoms: _326  and  _327
REMARK  144  A    between atoms: _330  and  _332
REMARK  145  A    between atoms: _332  and  _333
REMARK  146  A    between atoms: _332  and  _335
REMARK  147  A    between atoms: _335  and  _336
REMARK  148  A    between atoms: _339  and  _341
REMARK  149  A    between atoms: _341  and  _342
REMARK  150  A    between atoms: _341  and  _344
REMARK  151  A    between atoms: _344  and  _345
REMARK  152  A    between atoms: _348  and  _350
REMARK  153  A    between atoms: _350  and  _351
REMARK  154  A    between atoms: _350  and  _353
REMARK  155  A    between atoms: _353  and  _354
REMARK  156  A    between atoms: _357  and  _359
REMARK  157  A    between atoms: _359  and  _360
REMARK  158  A    between atoms: _359  and  _362
REMARK  159  A    between atoms: _362  and  _363
REMARK  160  A    between atoms: _366  and  _368
REMARK  161  A    between atoms: _368  and  _369
REMARK  162  A    between atoms: _368  and  _371
REMARK  163  A    between atoms: _371  and  _372
REMARK  164  A    between atoms: _372  and  _373
REMARK  165  A    between atoms: _373  and  _374
REMARK  166  A    between atoms: _383  and  _385
REMARK  167  A    between atoms: _385  and  _386
REMARK  168  A    between atoms: _385  and  _388
REMARK  169  A    between atoms: _388  and  _389
REMARK  170  A    between atoms: _392  and  _394
REMARK  171  A    between atoms: _394  and  _395
REMARK  172  A    between atoms: _394  and  _397
REMARK  173  A    between atoms: _397  and  _398
REMARK  174  A    between atoms: _398  and  _399
REMARK  175  A    between atoms: _399  and  _400
REMARK  176  A    between atoms: _409  and  _411
REMARK  177  A    between atoms: _411  and  _412
REMARK  178  A    between atoms: _411  and  _414
REMARK  179  A    between atoms: _414  and  _415
REMARK                            x       y       z     vdW  Elec       q    Type
REMARK                         _______ _______ _______ _____ _____    ______ ____
ROOT
ATOM      1  CB  PHE A   1       2.995  11.785  15.426  0.00  0.00    +0.051 C 
ENDROOT
BRANCH   1   2
ATOM      2  CG  PHE A   1       3.117  11.828  13.922  0.00  0.00    -0.020 A 
ATOM      3  CD2 PHE A   1       3.187  13.043  13.253  0.00  0.00    -0.004 A 
ATOM      4  CE2 PHE A   1       3.280  13.091  11.884  0.00  0.00    -0.000 A 
ATOM      5  CZ  PHE A   1       3.304  11.917  11.150  0.00  0.00    -0.000 A 
ATOM      6  CE1 PHE A   1       3.241  10.694  11.802  0.00  0.00    -0.000 A 
ATOM      7  CD1 PHE A   1       3.138  10.657  13.179  0.00  0.00    -0.004 A 
ENDBRANCH   1   2
BRANCH   1   8
ATOM      8  CA  PHE A   1       4.317  11.525  16.155  0.00  0.00    +0.137 C 
BRANCH   8   9
ATOM      9  N   PHE A   1       5.352  12.469  15.738  0.00  0.00    -0.239 NA
ATOM     10  H   PHE A   1       5.853  12.318  14.839  0.00  0.00    +0.142 HD
ENDBRANCH   8   9
BRANCH   8  11
ATOM     11  C   PHE A   1       4.721  10.051  16.045  0.00  0.00    +0.224 C 
ATOM     12  O   PHE A   1       3.866   9.170  15.994  0.00  0.00    -0.287 OA
ENDBRANCH   8  11
ENDBRANCH   1   8
TORSDOF 4
REMARK  Name = ../refined-set-2016/3c52/3c52_pocket.pdb
REMARK  179 active torsions:
REMARK  status: ('A' for Active; 'I' for Inactive)
REMARK    1  A    between atoms: _1  and  _3
REMARK    2  A    between atoms: _3  and  _4
REMARK    3  A    between atoms: _7  and  _9
REMARK    4  A    between atoms: _9  and  _10
REMARK    5  A    between atoms: _9  and  _12
REMARK    6  A    between atoms: _12  and  _13
REMARK    7  A    between atoms: _19  and  _21
REMARK    8  A    between atoms: _21  and  _22
REMARK    9  A    between atoms: _21  and  _24
REMARK   10  A    between atoms: _24  and  _25
REMARK   11  A    between atoms: _30  and  _32
REMARK   12  A    between atoms: _32  and  _33
REMARK   13  A    between atoms: _32  and  _35
REMARK   14  A    between atoms: _35  and  _36
REMARK   15  A    between atoms: _36  and  _37
REMARK   16  A    between atoms: _42  and  _44
REMARK   17  A    between atoms: _44  and  _45
REMARK   18  A    between atoms: _44  and  _47
REMARK   19  A    between atoms: _47  and  _48
REMARK   20  A    between atoms: _50  and  _52
REMARK   21  A    between atoms: _52  and  _53
REMARK   22  A    between atoms: _52  and  _55
REMARK   23  A    between atoms: _55  and  _56
REMARK   24  A    between atoms: _61  and  _63
REMARK   25  A    between atoms: _63  and  _64
REMARK   26  A    between atoms: _63  and  _66
REMARK   27  A    between atoms: _66  and  _67
REMARK   28  A    between atoms: _70  and  _72
REMARK   29  A    between atoms: _72  and  _73
REMARK   30  A    between atoms: _72  and  _75
REMARK   31  A    between atoms: _75  and  _76
REMARK   32  A    between atoms: _79  and  _81
REMARK   33  A    between atoms: _81  and  _82
REMARK   34  A    between atoms: _81  and  _84
REMARK   35  A    between atoms: _84  and  _85
REMARK   36  A    between atoms: _89  and  ZN_421
REMARK   37  A    between atoms: _90  and  _92
REMARK   38  A    between atoms: _92  and  _93
REMARK   39  A    between atoms: _92  and  _95
REMARK   40  A    between atoms: _95  and  _96
REMARK   41  A    between atoms: _96  and  _97
REMARK   42  A    between atoms: _99  and  _101
REMARK   43  A    between atoms: _101  and  _102
REMARK   44  A    between atoms: _101  and  _104
REMARK   45  A    between atoms: _104  and  _105
REMARK   46  A    between atoms: _108  and  _110
REMARK   47  A    between atoms: _110  and  _111
REMARK   48  A    between atoms: _110  and  _113
REMARK   49  A    between atoms: _113  and  _114
REMARK   50  A    between atoms: _114  and  _115
REMARK   51  A    between atoms: _118  and  _120
REMARK   52  A    between atoms: _120  and  _121
REMARK   53  A    between atoms: _120  and  _123
REMARK   54  A    between atoms: _123  and  _124
REMARK   55  A    between atoms: _124  and  _125
REMARK   56  A    between atoms: _128  and  _130
REMARK   57  A    between atoms: _130  and  _131
REMARK   58  A    between atoms: _130  and  _133
REMARK   59  A    between atoms: _133  and  _134
REMARK   60  A    between atoms: _137  and  _139
REMARK   61  A    between atoms: _139  and  _140
REMARK   62  A    between atoms: _139  and  _142
REMARK   63  A    between atoms: _142  and  _143
REMARK   64  A    between atoms: _146  and  _148
REMARK   65  A    between atoms: _148  and  _149
REMARK   66  A    between atoms: _148  and  _151
REMARK   67  A    between atoms: _151  and  _152
REMARK   68  A    between atoms: _154  and  _156
REMARK   69  A    between atoms: _156  and  _157
REMARK   70  A    between atoms: _156  and  _159
REMARK   71  A    between atoms: _159  and  _160
REMARK   72  A    between atoms: _164  and  ZN_421
REMARK   73  A    between atoms: _165  and  _167
REMARK   74  A    between atoms: _167  and  _168
REMARK   75  A    between atoms: _170  and  _172
REMARK   76  A    between atoms: _172  and  _173
REMARK   77  A    between atoms: _176  and  _178
REMARK   78  A    between atoms: _178  and  _179
REMARK   79  A    between atoms: _178  and  _181
REMARK   80  A    between atoms: _181  and  _182
REMARK   81  A    between atoms: _188  and  _190
REMARK   82  A    between atoms: _190  and  _191
REMARK   83  A    between atoms: _190  and  _193
REMARK   84  A    between atoms: _193  and  _194
REMARK   85  A    between atoms: _194  and  _195
REMARK   86  A    between atoms: _195  and  _196
REMARK   87  A    between atoms: _196  and  _197
REMARK   88  A    between atoms: _201  and  _203
REMARK   89  A    between atoms: _203  and  _204
REMARK   90  A    between atoms: _203  and  _206
REMARK   91  A    between atoms: _209  and  _211
REMARK   92  A    between atoms: _211  and  _212
REMARK   93  A    between atoms: _211  and  _214
REMARK   94  A    between atoms: _214  and  _215
REMARK   95  A    between atoms: _218  and  _220
REMARK   96  A    between atoms: _220  and  _221
REMARK   97  A    between atoms: _220  and  _223
REMARK   98  A    between atoms: _223  and  _224
REMARK   99  A    between atoms: _225  and  ZN_421
REMARK  100  A    between atoms: _229  and  _231
REMARK  101  A    between atoms: _231  and  _232
REMARK  102  A    between atoms: _234  and  _236
REMARK  103  A    between atoms: _236  and  _237
REMARK  104  A    between atoms: _240  and  _242
REMARK  105  A    between atoms: _242  and  _243
REMARK  106  A    between atoms: _242  and  _245
REMARK  107  A    between atoms: _245  and  _246
REMARK  108  A    between atoms: _248  and  _250
REMARK  109  A    between atoms: _250  and  _251
REMARK  110  A    between atoms: _254  and  _256
REMARK  111  A    between atoms: _256  and  _257
REMARK  112  A    between atoms: _256  and  _259
REMARK  113  A    between atoms: _259  and  _260
REMARK  114  A    between atoms: _263  and  _265
REMARK  115  A    between atoms: _265  and  _266
REMARK  116  A    between atoms: _265  and  _268
REMARK  117  A    between atoms: _268  and  _269
REMARK  118  A    between atoms: _269  and  _270
REMARK  119  A    between atoms: _270  and  _271
REMARK  120  A    between atoms: _271  and  _272
REMARK  121  A    between atoms: _276  and  _278
REMARK  122  A    between atoms: _278  and  _279
REMARK  123  A    between atoms: _281  and  _283
REMARK  124  A    between atoms: _283  and  _284
REMARK  125  A    between atoms: _283  and  _286
REMARK  126  A    between atoms: _289  and  _291
REMARK  127  A    between atoms: _291  and  _292
REMARK  128  A    between atoms: _291  and  _294
REMARK  129  A    between atoms: _294  and  _295
REMARK  130  A    between atoms: _295  and  _296
REMARK  131  A    between atoms: _296  and  _297
REMARK  132  A    between atoms: _297  and  _298
REMARK  133  A    between atoms: _302  and  _304
REMARK  134  A    between atoms: _304  and  _305
REMARK  135  A    between atoms: _304  and  _307
REMARK  136  A    between atoms: _310  and  _312
REMARK  137  A    between atoms: _312  and  _313
REMARK  138  A    between atoms: _312  and  _315
REMARK  139  A    between atoms: _315  and  _316
REMARK  140  A    between atoms: _321  and  _323
REMARK  141  A    between atoms: _323  and  _324
REMARK  142  A    between atoms: _323  and  _326
REMARK  143  A    between atoms: _326  and  _327
REMARK  144  A    between atoms: _330  and  _332
REMARK  145  A    between atoms: _332  and  _333
REMARK  146  A    between atoms: _332  and  _335
REMARK  147  A    between atoms: _335  and  _336
REMARK  148  A    between atoms: _339  and  _341
REMARK  149  A    between atoms: _341  and  _342
REMARK  150  A    between atoms: _341  and  _344
REMARK  151  A    between atoms: _344  and  _345
REMARK  152  A    between atoms: _348  and  _350
REMARK  153  A    between atoms: _350  and  _351
REMARK  154  A    between atoms: _350  and  _353
REMARK  155  A    between atoms: _353  and  _354
REMARK  156  A    between atoms: _357  and  _359
REMARK  157  A    between atoms: _359  and  _360
REMARK  158  A    between atoms: _359  and  _362
REMARK  159  A    between atoms: _362  and  _363
REMARK  160  A    between atoms: _366  and  _368
REMARK  161  A    between atoms: _368  and  _369
REMARK  162  A    between atoms: _368  and  _371
REMARK  163  A    between atoms: _371  and  _372
REMARK  164  A    between atoms: _372  and  _373
REMARK  165  A    between atoms: _373  and  _374
REMARK  166  A    between atoms: _383  and  _385
REMARK  167  A    between atoms: _385  and  _386
REMARK  168  A    between atoms: _385  and  _388
REMARK  169  A    between atoms: _388  and  _389
REMARK  170  A    between atoms: _392  and  _394
REMARK  171  A    between atoms: _394  and  _395
REMARK  172  A    between atoms: _394  and  _397
REMARK  173  A    between atoms: _397  and  _398
REMARK  174  A    between atoms: _398  and  _399
REMARK  175  A    between atoms: _399  and  _400
REMARK  176  A    between atoms: _409  and  _411
REMARK  177  A    between atoms: _411  and  _412
REMARK  178  A    between atoms: _411  and  _414
REMARK  179  A    between atoms: _414  and  _415
REMARK                            x       y       z     vdW  Elec       q    Type
REMARK                         _______ _______ _______ _____ _____    ______ ____
ROOT
ATOM      1  O   HOH     1       6.102   0.050   8.371  0.00  0.00    +0.000 OA
ENDROOT
TORSDOF 0
REMARK  Name = ../refined-set-2016/3c52/3c52_pocket.pdb
REMARK  179 active torsions:
REMARK  status: ('A' for Active; 'I' for Inactive)
REMARK    1  A    between atoms: _1  and  _3
REMARK    2  A    between atoms: _3  and  _4
REMARK    3  A    between atoms: _7  and  _9
REMARK    4  A    between atoms: _9  and  _10
REMARK    5  A    between atoms: _9  and  _12
REMARK    6  A    between atoms: _12  and  _13
REMARK    7  A    between atoms: _19  and  _21
REMARK    8  A    between atoms: _21  and  _22
REMARK    9  A    between atoms: _21  and  _24
REMARK   10  A    between atoms: _24  and  _25
REMARK   11  A    between atoms: _30  and  _32
REMARK   12  A    between atoms: _32  and  _33
REMARK   13  A    between atoms: _32  and  _35
REMARK   14  A    between atoms: _35  and  _36
REMARK   15  A    between atoms: _36  and  _37
REMARK   16  A    between atoms: _42  and  _44
REMARK   17  A    between atoms: _44  and  _45
REMARK   18  A    between atoms: _44  and  _47
REMARK   19  A    between atoms: _47  and  _48
REMARK   20  A    between atoms: _50  and  _52
REMARK   21  A    between atoms: _52  and  _53
REMARK   22  A    between atoms: _52  and  _55
REMARK   23  A    between atoms: _55  and  _56
REMARK   24  A    between atoms: _61  and  _63
REMARK   25  A    between atoms: _63  and  _64
REMARK   26  A    between atoms: _63  and  _66
REMARK   27  A    between atoms: _66  and  _67
REMARK   28  A    between atoms: _70  and  _72
REMARK   29  A    between atoms: _72  and  _73
REMARK   30  A    between atoms: _72  and  _75
REMARK   31  A    between atoms: _75  and  _76
REMARK   32  A    between atoms: _79  and  _81
REMARK   33  A    between atoms: _81  and  _82
REMARK   34  A    between atoms: _81  and  _84
REMARK   35  A    between atoms: _84  and  _85
REMARK   36  A    between atoms: _89  and  ZN_421
REMARK   37  A    between atoms: _90  and  _92
REMARK   38  A    between atoms: _92  and  _93
REMARK   39  A    between atoms: _92  and  _95
REMARK   40  A    between atoms: _95  and  _96
REMARK   41  A    between atoms: _96  and  _97
REMARK   42  A    between atoms: _99  and  _101
REMARK   43  A    between atoms: _101  and  _102
REMARK   44  A    between atoms: _101  and  _104
REMARK   45  A    between atoms: _104  and  _105
REMARK   46  A    between atoms: _108  and  _110
REMARK   47  A    between atoms: _110  and  _111
REMARK   48  A    between atoms: _110  and  _113
REMARK   49  A    between atoms: _113  and  _114
REMARK   50  A    between atoms: _114  and  _115
REMARK   51  A    between atoms: _118  and  _120
REMARK   52  A    between atoms: _120  and  _121
REMARK   53  A    between atoms: _120  and  _123
REMARK   54  A    between atoms: _123  and  _124
REMARK   55  A    between atoms: _124  and  _125
REMARK   56  A    between atoms: _128  and  _130
REMARK   57  A    between atoms: _130  and  _131
REMARK   58  A    between atoms: _130  and  _133
REMARK   59  A    between atoms: _133  and  _134
REMARK   60  A    between atoms: _137  and  _139
REMARK   61  A    between atoms: _139  and  _140
REMARK   62  A    between atoms: _139  and  _142
REMARK   63  A    between atoms: _142  and  _143
REMARK   64  A    between atoms: _146  and  _148
REMARK   65  A    between atoms: _148  and  _149
REMARK   66  A    between atoms: _148  and  _151
REMARK   67  A    between atoms: _151  and  _152
REMARK   68  A    between atoms: _154  and  _156
REMARK   69  A    between atoms: _156  and  _157
REMARK   70  A    between atoms: _156  and  _159
REMARK   71  A    between atoms: _159  and  _160
REMARK   72  A    between atoms: _164  and  ZN_421
REMARK   73  A    between atoms: _165  and  _167
REMARK   74  A    between atoms: _167  and  _168
REMARK   75  A    between atoms: _170  and  _172
REMARK   76  A    between atoms: _172  and  _173
REMARK   77  A    between atoms: _176  and  _178
REMARK   78  A    between atoms: _178  and  _179
REMARK   79  A    between atoms: _178  and  _181
REMARK   80  A    between atoms: _181  and  _182
REMARK   81  A    between atoms: _188  and  _190
REMARK   82  A    between atoms: _190  and  _191
REMARK   83  A    between atoms: _190  and  _193
REMARK   84  A    between atoms: _193  and  _194
REMARK   85  A    between atoms: _194  and  _195
REMARK   86  A    between atoms: _195  and  _196
REMARK   87  A    between atoms: _196  and  _197
REMARK   88  A    between atoms: _201  and  _203
REMARK   89  A    between atoms: _203  and  _204
REMARK   90  A    between atoms: _203  and  _206
REMARK   91  A    between atoms: _209  and  _211
REMARK   92  A    between atoms: _211  and  _212
REMARK   93  A    between atoms: _211  and  _214
REMARK   94  A    between atoms: _214  and  _215
REMARK   95  A    between atoms: _218  and  _220
REMARK   96  A    between atoms: _220  and  _221
REMARK   97  A    between atoms: _220  and  _223
REMARK   98  A    between atoms: _223  and  _224
REMARK   99  A    between atoms: _225  and  ZN_421
REMARK  100  A    between atoms: _229  and  _231
REMARK  101  A    between atoms: _231  and  _232
REMARK  102  A    between atoms: _234  and  _236
REMARK  103  A    between atoms: _236  and  _237
REMARK  104  A    between atoms: _240  and  _242
REMARK  105  A    between atoms: _242  and  _243
REMARK  106  A    between atoms: _242  and  _245
REMARK  107  A    between atoms: _245  and  _246
REMARK  108  A    between atoms: _248  and  _250
REMARK  109  A    between atoms: _250  and  _251
REMARK  110  A    between atoms: _254  and  _256
REMARK  111  A    between atoms: _256  and  _257
REMARK  112  A    between atoms: _256  and  _259
REMARK  113  A    between atoms: _259  and  _260
REMARK  114  A    between atoms: _263  and  _265
REMARK  115  A    between atoms: _265  and  _266
REMARK  116  A    between atoms: _265  and  _268
REMARK  117  A    between atoms: _268  and  _269
REMARK  118  A    between atoms: _269  and  _270
REMARK  119  A    between atoms: _270  and  _271
REMARK  120  A    between atoms: _271  and  _272
REMARK  121  A    between atoms: _276  and  _278
REMARK  122  A    between atoms: _278  and  _279
REMARK  123  A    between atoms: _281  and  _283
REMARK  124  A    between atoms: _283  and  _284
REMARK  125  A    between atoms: _283  and  _286
REMARK  126  A    between atoms: _289  and  _291
REMARK  127  A    between atoms: _291  and  _292
REMARK  128  A    between atoms: _291  and  _294
REMARK  129  A    between atoms: _294  and  _295
REMARK  130  A    between atoms: _295  and  _296
REMARK  131  A    between atoms: _296  and  _297
REMARK  132  A    between atoms: _297  and  _298
REMARK  133  A    between atoms: _302  and  _304
REMARK  134  A    between atoms: _304  and  _305
REMARK  135  A    between atoms: _304  and  _307
REMARK  136  A    between atoms: _310  and  _312
REMARK  137  A    between atoms: _312  and  _313
REMARK  138  A    between atoms: _312  and  _315
REMARK  139  A    between atoms: _315  and  _316
REMARK  140  A    between atoms: _321  and  _323
REMARK  141  A    between atoms: _323  and  _324
REMARK  142  A    between atoms: _323  and  _326
REMARK  143  A    between atoms: _326  and  _327
REMARK  144  A    between atoms: _330  and  _332
REMARK  145  A    between atoms: _332  and  _333
REMARK  146  A    between atoms: _332  and  _335
REMARK  147  A    between atoms: _335  and  _336
REMARK  148  A    between atoms: _339  and  _341
REMARK  149  A    between atoms: _341  and  _342
REMARK  150  A    between atoms: _341  and  _344
REMARK  151  A    between atoms: _344  and  _345
REMARK  152  A    between atoms: _348  and  _350
REMARK  153  A    between atoms: _350  and  _351
REMARK  154  A    between atoms: _350  and  _353
REMARK  155  A    between atoms: _353  and  _354
REMARK  156  A    between atoms: _357  and  _359
REMARK  157  A    between atoms: _359  and  _360
REMARK  158  A    between atoms: _359  and  _362
REMARK  159  A    between atoms: _362  and  _363
REMARK  160  A    between atoms: _366  and  _368
REMARK  161  A    between atoms: _368  and  _369
REMARK  162  A    between atoms: _368  and  _371
REMARK  163  A    between atoms: _371  and  _372
REMARK  164  A    between atoms: _372  and  _373
REMARK  165  A    between atoms: _373  and  _374
REMARK  166  A    between atoms: _383  and  _385
REMARK  167  A    between atoms: _385  and  _386
REMARK  168  A    between atoms: _385  and  _388
REMARK  169  A    between atoms: _388  and  _389
REMARK  170  A    between atoms: _392  and  _394
REMARK  171  A    between atoms: _394  and  _395
REMARK  172  A    between atoms: _394  and  _397
REMARK  173  A    between atoms: _397  and  _398
REMARK  174  A    between atoms: _398  and  _399
REMARK  175  A    between atoms: _399  and  _400
REMARK  176  A    between atoms: _409  and  _411
REMARK  177  A    between atoms: _411  and  _412
REMARK  178  A    between atoms: _411  and  _414
REMARK  179  A    between atoms: _414  and  _415
REMARK                            x       y       z     vdW  Elec       q    Type
REMARK                         _______ _______ _______ _____ _____    ______ ____
ROOT
ATOM      1  O   HOH     1       9.215   4.305   1.377  0.00  0.00    +0.000 OA
ENDROOT
TORSDOF 0
REMARK  Name = ../refined-set-2016/3c52/3c52_pocket.pdb
REMARK  179 active torsions:
REMARK  status: ('A' for Active; 'I' for Inactive)
REMARK    1  A    between atoms: _1  and  _3
REMARK    2  A    between atoms: _3  and  _4
REMARK    3  A    between atoms: _7  and  _9
REMARK    4  A    between atoms: _9  and  _10
REMARK    5  A    between atoms: _9  and  _12
REMARK    6  A    between atoms: _12  and  _13
REMARK    7  A    between atoms: _19  and  _21
REMARK    8  A    between atoms: _21  and  _22
REMARK    9  A    between atoms: _21  and  _24
REMARK   10  A    between atoms: _24  and  _25
REMARK   11  A    between atoms: _30  and  _32
REMARK   12  A    between atoms: _32  and  _33
REMARK   13  A    between atoms: _32  and  _35
REMARK   14  A    between atoms: _35  and  _36
REMARK   15  A    between atoms: _36  and  _37
REMARK   16  A    between atoms: _42  and  _44
REMARK   17  A    between atoms: _44  and  _45
REMARK   18  A    between atoms: _44  and  _47
REMARK   19  A    between atoms: _47  and  _48
REMARK   20  A    between atoms: _50  and  _52
REMARK   21  A    between atoms: _52  and  _53
REMARK   22  A    between atoms: _52  and  _55
REMARK   23  A    between atoms: _55  and  _56
REMARK   24  A    between atoms: _61  and  _63
REMARK   25  A    between atoms: _63  and  _64
REMARK   26  A    between atoms: _63  and  _66
REMARK   27  A    between atoms: _66  and  _67
REMARK   28  A    between atoms: _70  and  _72
REMARK   29  A    between atoms: _72  and  _73
REMARK   30  A    between atoms: _72  and  _75
REMARK   31  A    between atoms: _75  and  _76
REMARK   32  A    between atoms: _79  and  _81
REMARK   33  A    between atoms: _81  and  _82
REMARK   34  A    between atoms: _81  and  _84
REMARK   35  A    between atoms: _84  and  _85
REMARK   36  A    between atoms: _89  and  ZN_421
REMARK   37  A    between atoms: _90  and  _92
REMARK   38  A    between atoms: _92  and  _93
REMARK   39  A    between atoms: _92  and  _95
REMARK   40  A    between atoms: _95  and  _96
REMARK   41  A    between atoms: _96  and  _97
REMARK   42  A    between atoms: _99  and  _101
REMARK   43  A    between atoms: _101  and  _102
REMARK   44  A    between atoms: _101  and  _104
REMARK   45  A    between atoms: _104  and  _105
REMARK   46  A    between atoms: _108  and  _110
REMARK   47  A    between atoms: _110  and  _111
REMARK   48  A    between atoms: _110  and  _113
REMARK   49  A    between atoms: _113  and  _114
REMARK   50  A    between atoms: _114  and  _115
REMARK   51  A    between atoms: _118  and  _120
REMARK   52  A    between atoms: _120  and  _121
REMARK   53  A    between atoms: _120  and  _123
REMARK   54  A    between atoms: _123  and  _124
REMARK   55  A    between atoms: _124  and  _125
REMARK   56  A    between atoms: _128  and  _130
REMARK   57  A    between atoms: _130  and  _131
REMARK   58  A    between atoms: _130  and  _133
REMARK   59  A    between atoms: _133  and  _134
REMARK   60  A    between atoms: _137  and  _139
REMARK   61  A    between atoms: _139  and  _140
REMARK   62  A    between atoms: _139  and  _142
REMARK   63  A    between atoms: _142  and  _143
REMARK   64  A    between atoms: _146  and  _148
REMARK   65  A    between atoms: _148  and  _149
REMARK   66  A    between atoms: _148  and  _151
REMARK   67  A    between atoms: _151  and  _152
REMARK   68  A    between atoms: _154  and  _156
REMARK   69  A    between atoms: _156  and  _157
REMARK   70  A    between atoms: _156  and  _159
REMARK   71  A    between atoms: _159  and  _160
REMARK   72  A    between atoms: _164  and  ZN_421
REMARK   73  A    between atoms: _165  and  _167
REMARK   74  A    between atoms: _167  and  _168
REMARK   75  A    between atoms: _170  and  _172
REMARK   76  A    between atoms: _172  and  _173
REMARK   77  A    between atoms: _176  and  _178
REMARK   78  A    between atoms: _178  and  _179
REMARK   79  A    between atoms: _178  and  _181
REMARK   80  A    between atoms: _181  and  _182
REMARK   81  A    between atoms: _188  and  _190
REMARK   82  A    between atoms: _190  and  _191
REMARK   83  A    between atoms: _190  and  _193
REMARK   84  A    between atoms: _193  and  _194
REMARK   85  A    between atoms: _194  and  _195
REMARK   86  A    between atoms: _195  and  _196
REMARK   87  A    between atoms: _196  and  _197
REMARK   88  A    between atoms: _201  and  _203
REMARK   89  A    between atoms: _203  and  _204
REMARK   90  A    between atoms: _203  and  _206
REMARK   91  A    between atoms: _209  and  _211
REMARK   92  A    between atoms: _211  and  _212
REMARK   93  A    between atoms: _211  and  _214
REMARK   94  A    between atoms: _214  and  _215
REMARK   95  A    between atoms: _218  and  _220
REMARK   96  A    between atoms: _220  and  _221
REMARK   97  A    between atoms: _220  and  _223
REMARK   98  A    between atoms: _223  and  _224
REMARK   99  A    between atoms: _225  and  ZN_421
REMARK  100  A    between atoms: _229  and  _231
REMARK  101  A    between atoms: _231  and  _232
REMARK  102  A    between atoms: _234  and  _236
REMARK  103  A    between atoms: _236  and  _237
REMARK  104  A    between atoms: _240  and  _242
REMARK  105  A    between atoms: _242  and  _243
REMARK  106  A    between atoms: _242  and  _245
REMARK  107  A    between atoms: _245  and  _246
REMARK  108  A    between atoms: _248  and  _250
REMARK  109  A    between atoms: _250  and  _251
REMARK  110  A    between atoms: _254  and  _256
REMARK  111  A    between atoms: _256  and  _257
REMARK  112  A    between atoms: _256  and  _259
REMARK  113  A    between atoms: _259  and  _260
REMARK  114  A    between atoms: _263  and  _265
REMARK  115  A    between atoms: _265  and  _266
REMARK  116  A    between atoms: _265  and  _268
REMARK  117  A    between atoms: _268  and  _269
REMARK  118  A    between atoms: _269  and  _270
REMARK  119  A    between atoms: _270  and  _271
REMARK  120  A    between atoms: _271  and  _272
REMARK  121  A    between atoms: _276  and  _278
REMARK  122  A    between atoms: _278  and  _279
REMARK  123  A    between atoms: _281  and  _283
REMARK  124  A    between atoms: _283  and  _284
REMARK  125  A    between atoms: _283  and  _286
REMARK  126  A    between atoms: _289  and  _291
REMARK  127  A    between atoms: _291  and  _292
REMARK  128  A    between atoms: _291  and  _294
REMARK  129  A    between atoms: _294  and  _295
REMARK  130  A    between atoms: _295  and  _296
REMARK  131  A    between atoms: _296  and  _297
REMARK  132  A    between atoms: _297  and  _298
REMARK  133  A    between atoms: _302  and  _304
REMARK  134  A    between atoms: _304  and  _305
REMARK  135  A    between atoms: _304  and  _307
REMARK  136  A    between atoms: _310  and  _312
REMARK  137  A    between atoms: _312  and  _313
REMARK  138  A    between atoms: _312  and  _315
REMARK  139  A    between atoms: _315  and  _316
REMARK  140  A    between atoms: _321  and  _323
REMARK  141  A    between atoms: _323  and  _324
REMARK  142  A    between atoms: _323  and  _326
REMARK  143  A    between atoms: _326  and  _327
REMARK  144  A    between atoms: _330  and  _332
REMARK  145  A    between atoms: _332  and  _333
REMARK  146  A    between atoms: _332  and  _335
REMARK  147  A    between atoms: _335  and  _336
REMARK  148  A    between atoms: _339  and  _341
REMARK  149  A    between atoms: _341  and  _342
REMARK  150  A    between atoms: _341  and  _344
REMARK  151  A    between atoms: _344  and  _345
REMARK  152  A    between atoms: _348  and  _350
REMARK  153  A    between atoms: _350  and  _351
REMARK  154  A    between atoms: _350  and  _353
REMARK  155  A    between atoms: _353  and  _354
REMARK  156  A    between atoms: _357  and  _359
REMARK  157  A    between atoms: _359  and  _360
REMARK  158  A    between atoms: _359  and  _362
REMARK  159  A    between atoms: _362  and  _363
REMARK  160  A    between atoms: _366  and  _368
REMARK  161  A    between atoms: _368  and  _369
REMARK  162  A    between atoms: _368  and  _371
REMARK  163  A    between atoms: _371  and  _372
REMARK  164  A    between atoms: _372  and  _373
REMARK  165  A    between atoms: _373  and  _374
REMARK  166  A    between atoms: _383  and  _385
REMARK  167  A    between atoms: _385  and  _386
REMARK  168  A    between atoms: _385  and  _388
REMARK  169  A    between atoms: _388  and  _389
REMARK  170  A    between atoms: _392  and  _394
REMARK  171  A    between atoms: _394  and  _395
REMARK  172  A    between atoms: _394  and  _397
REMARK  173  A    between atoms: _397  and  _398
REMARK  174  A    between atoms: _398  and  _399
REMARK  175  A    between atoms: _399  and  _400
REMARK  176  A    between atoms: _409  and  _411
REMARK  177  A    between atoms: _411  and  _412
REMARK  178  A    between atoms: _411  and  _414
REMARK  179  A    between atoms: _414  and  _415
REMARK                            x       y       z     vdW  Elec       q    Type
REMARK                         _______ _______ _______ _____ _____    ______ ____
ROOT
ATOM      1  O   HOH     1       1.549  -0.031  -2.968  0.00  0.00    +0.000 OA
ENDROOT
TORSDOF 0
REMARK  Name = ../refined-set-2016/3c52/3c52_pocket.pdb
REMARK  179 active torsions:
REMARK  status: ('A' for Active; 'I' for Inactive)
REMARK    1  A    between atoms: _1  and  _3
REMARK    2  A    between atoms: _3  and  _4
REMARK    3  A    between atoms: _7  and  _9
REMARK    4  A    between atoms: _9  and  _10
REMARK    5  A    between atoms: _9  and  _12
REMARK    6  A    between atoms: _12  and  _13
REMARK    7  A    between atoms: _19  and  _21
REMARK    8  A    between atoms: _21  and  _22
REMARK    9  A    between atoms: _21  and  _24
REMARK   10  A    between atoms: _24  and  _25
REMARK   11  A    between atoms: _30  and  _32
REMARK   12  A    between atoms: _32  and  _33
REMARK   13  A    between atoms: _32  and  _35
REMARK   14  A    between atoms: _35  and  _36
REMARK   15  A    between atoms: _36  and  _37
REMARK   16  A    between atoms: _42  and  _44
REMARK   17  A    between atoms: _44  and  _45
REMARK   18  A    between atoms: _44  and  _47
REMARK   19  A    between atoms: _47  and  _48
REMARK   20  A    between atoms: _50  and  _52
REMARK   21  A    between atoms: _52  and  _53
REMARK   22  A    between atoms: _52  and  _55
REMARK   23  A    between atoms: _55  and  _56
REMARK   24  A    between atoms: _61  and  _63
REMARK   25  A    between atoms: _63  and  _64
REMARK   26  A    between atoms: _63  and  _66
REMARK   27  A    between atoms: _66  and  _67
REMARK   28  A    between atoms: _70  and  _72
REMARK   29  A    between atoms: _72  and  _73
REMARK   30  A    between atoms: _72  and  _75
REMARK   31  A    between atoms: _75  and  _76
REMARK   32  A    between atoms: _79  and  _81
REMARK   33  A    between atoms: _81  and  _82
REMARK   34  A    between atoms: _81  and  _84
REMARK   35  A    between atoms: _84  and  _85
REMARK   36  A    between atoms: _89  and  ZN_421
REMARK   37  A    between atoms: _90  and  _92
REMARK   38  A    between atoms: _92  and  _93
REMARK   39  A    between atoms: _92  and  _95
REMARK   40  A    between atoms: _95  and  _96
REMARK   41  A    between atoms: _96  and  _97
REMARK   42  A    between atoms: _99  and  _101
REMARK   43  A    between atoms: _101  and  _102
REMARK   44  A    between atoms: _101  and  _104
REMARK   45  A    between atoms: _104  and  _105
REMARK   46  A    between atoms: _108  and  _110
REMARK   47  A    between atoms: _110  and  _111
REMARK   48  A    between atoms: _110  and  _113
REMARK   49  A    between atoms: _113  and  _114
REMARK   50  A    between atoms: _114  and  _115
REMARK   51  A    between atoms: _118  and  _120
REMARK   52  A    between atoms: _120  and  _121
REMARK   53  A    between atoms: _120  and  _123
REMARK   54  A    between atoms: _123  and  _124
REMARK   55  A    between atoms: _124  and  _125
REMARK   56  A    between atoms: _128  and  _130
REMARK   57  A    between atoms: _130  and  _131
REMARK   58  A    between atoms: _130  and  _133
REMARK   59  A    between atoms: _133  and  _134
REMARK   60  A    between atoms: _137  and  _139
REMARK   61  A    between atoms: _139  and  _140
REMARK   62  A    between atoms: _139  and  _142
REMARK   63  A    between atoms: _142  and  _143
REMARK   64  A    between atoms: _146  and  _148
REMARK   65  A    between atoms: _148  and  _149
REMARK   66  A    between atoms: _148  and  _151
REMARK   67  A    between atoms: _151  and  _152
REMARK   68  A    between atoms: _154  and  _156
REMARK   69  A    between atoms: _156  and  _157
REMARK   70  A    between atoms: _156  and  _159
REMARK   71  A    between atoms: _159  and  _160
REMARK   72  A    between atoms: _164  and  ZN_421
REMARK   73  A    between atoms: _165  and  _167
REMARK   74  A    between atoms: _167  and  _168
REMARK   75  A    between atoms: _170  and  _172
REMARK   76  A    between atoms: _172  and  _173
REMARK   77  A    between atoms: _176  and  _178
REMARK   78  A    between atoms: _178  and  _179
REMARK   79  A    between atoms: _178  and  _181
REMARK   80  A    between atoms: _181  and  _182
REMARK   81  A    between atoms: _188  and  _190
REMARK   82  A    between atoms: _190  and  _191
REMARK   83  A    between atoms: _190  and  _193
REMARK   84  A    between atoms: _193  and  _194
REMARK   85  A    between atoms: _194  and  _195
REMARK   86  A    between atoms: _195  and  _196
REMARK   87  A    between atoms: _196  and  _197
REMARK   88  A    between atoms: _201  and  _203
REMARK   89  A    between atoms: _203  and  _204
REMARK   90  A    between atoms: _203  and  _206
REMARK   91  A    between atoms: _209  and  _211
REMARK   92  A    between atoms: _211  and  _212
REMARK   93  A    between atoms: _211  and  _214
REMARK   94  A    between atoms: _214  and  _215
REMARK   95  A    between atoms: _218  and  _220
REMARK   96  A    between atoms: _220  and  _221
REMARK   97  A    between atoms: _220  and  _223
REMARK   98  A    between atoms: _223  and  _224
REMARK   99  A    between atoms: _225  and  ZN_421
REMARK  100  A    between atoms: _229  and  _231
REMARK  101  A    between atoms: _231  and  _232
REMARK  102  A    between atoms: _234  and  _236
REMARK  103  A    between atoms: _236  and  _237
REMARK  104  A    between atoms: _240  and  _242
REMARK  105  A    between atoms: _242  and  _243
REMARK  106  A    between atoms: _242  and  _245
REMARK  107  A    between atoms: _245  and  _246
REMARK  108  A    between atoms: _248  and  _250
REMARK  109  A    between atoms: _250  and  _251
REMARK  110  A    between atoms: _254  and  _256
REMARK  111  A    between atoms: _256  and  _257
REMARK  112  A    between atoms: _256  and  _259
REMARK  113  A    between atoms: _259  and  _260
REMARK  114  A    between atoms: _263  and  _265
REMARK  115  A    between atoms: _265  and  _266
REMARK  116  A    between atoms: _265  and  _268
REMARK  117  A    between atoms: _268  and  _269
REMARK  118  A    between atoms: _269  and  _270
REMARK  119  A    between atoms: _270  and  _271
REMARK  120  A    between atoms: _271  and  _272
REMARK  121  A    between atoms: _276  and  _278
REMARK  122  A    between atoms: _278  and  _279
REMARK  123  A    between atoms: _281  and  _283
REMARK  124  A    between atoms: _283  and  _284
REMARK  125  A    between atoms: _283  and  _286
REMARK  126  A    between atoms: _289  and  _291
REMARK  127  A    between atoms: _291  and  _292
REMARK  128  A    between atoms: _291  and  _294
REMARK  129  A    between atoms: _294  and  _295
REMARK  130  A    between atoms: _295  and  _296
REMARK  131  A    between atoms: _296  and  _297
REMARK  132  A    between atoms: _297  and  _298
REMARK  133  A    between atoms: _302  and  _304
REMARK  134  A    between atoms: _304  and  _305
REMARK  135  A    between atoms: _304  and  _307
REMARK  136  A    between atoms: _310  and  _312
REMARK  137  A    between atoms: _312  and  _313
REMARK  138  A    between atoms: _312  and  _315
REMARK  139  A    between atoms: _315  and  _316
REMARK  140  A    between atoms: _321  and  _323
REMARK  141  A    between atoms: _323  and  _324
REMARK  142  A    between atoms: _323  and  _326
REMARK  143  A    between atoms: _326  and  _327
REMARK  144  A    between atoms: _330  and  _332
REMARK  145  A    between atoms: _332  and  _333
REMARK  146  A    between atoms: _332  and  _335
REMARK  147  A    between atoms: _335  and  _336
REMARK  148  A    between atoms: _339  and  _341
REMARK  149  A    between atoms: _341  and  _342
REMARK  150  A    between atoms: _341  and  _344
REMARK  151  A    between atoms: _344  and  _345
REMARK  152  A    between atoms: _348  and  _350
REMARK  153  A    between atoms: _350  and  _351
REMARK  154  A    between atoms: _350  and  _353
REMARK  155  A    between atoms: _353  and  _354
REMARK  156  A    between atoms: _357  and  _359
REMARK  157  A    between atoms: _359  and  _360
REMARK  158  A    between atoms: _359  and  _362
REMARK  159  A    between atoms: _362  and  _363
REMARK  160  A    between atoms: _366  and  _368
REMARK  161  A    between atoms: _368  and  _369
REMARK  162  A    between atoms: _368  and  _371
REMARK  163  A    between atoms: _371  and  _372
REMARK  164  A    between atoms: _372  and  _373
REMARK  165  A    between atoms: _373  and  _374
REMARK  166  A    between atoms: _383  and  _385
REMARK  167  A    between atoms: _385  and  _386
REMARK  168  A    between atoms: _385  and  _388
REMARK  169  A    between atoms: _388  and  _389
REMARK  170  A    between atoms: _392  and  _394
REMARK  171  A    between atoms: _394  and  _395
REMARK  172  A    between atoms: _394  and  _397
REMARK  173  A    between atoms: _397  and  _398
REMARK  174  A    between atoms: _398  and  _399
REMARK  175  A    between atoms: _399  and  _400
REMARK  176  A    between atoms: _409  and  _411
REMARK  177  A    between atoms: _411  and  _412
REMARK  178  A    between atoms: _411  and  _414
REMARK  179  A    between atoms: _414  and  _415
REMARK                            x       y       z     vdW  Elec       q    Type
REMARK                         _______ _______ _______ _____ _____    ______ ____
ROOT
ATOM      1  O   HOH     1       5.819   1.327  12.989  0.00  0.00    +0.000 OA
ENDROOT
TORSDOF 0
REMARK  Name = ../refined-set-2016/3c52/3c52_pocket.pdb
REMARK  179 active torsions:
REMARK  status: ('A' for Active; 'I' for Inactive)
REMARK    1  A    between atoms: _1  and  _3
REMARK    2  A    between atoms: _3  and  _4
REMARK    3  A    between atoms: _7  and  _9
REMARK    4  A    between atoms: _9  and  _10
REMARK    5  A    between atoms: _9  and  _12
REMARK    6  A    between atoms: _12  and  _13
REMARK    7  A    between atoms: _19  and  _21
REMARK    8  A    between atoms: _21  and  _22
REMARK    9  A    between atoms: _21  and  _24
REMARK   10  A    between atoms: _24  and  _25
REMARK   11  A    between atoms: _30  and  _32
REMARK   12  A    between atoms: _32  and  _33
REMARK   13  A    between atoms: _32  and  _35
REMARK   14  A    between atoms: _35  and  _36
REMARK   15  A    between atoms: _36  and  _37
REMARK   16  A    between atoms: _42  and  _44
REMARK   17  A    between atoms: _44  and  _45
REMARK   18  A    between atoms: _44  and  _47
REMARK   19  A    between atoms: _47  and  _48
REMARK   20  A    between atoms: _50  and  _52
REMARK   21  A    between atoms: _52  and  _53
REMARK   22  A    between atoms: _52  and  _55
REMARK   23  A    between atoms: _55  and  _56
REMARK   24  A    between atoms: _61  and  _63
REMARK   25  A    between atoms: _63  and  _64
REMARK   26  A    between atoms: _63  and  _66
REMARK   27  A    between atoms: _66  and  _67
REMARK   28  A    between atoms: _70  and  _72
REMARK   29  A    between atoms: _72  and  _73
REMARK   30  A    between atoms: _72  and  _75
REMARK   31  A    between atoms: _75  and  _76
REMARK   32  A    between atoms: _79  and  _81
REMARK   33  A    between atoms: _81  and  _82
REMARK   34  A    between atoms: _81  and  _84
REMARK   35  A    between atoms: _84  and  _85
REMARK   36  A    between atoms: _89  and  ZN_421
REMARK   37  A    between atoms: _90  and  _92
REMARK   38  A    between atoms: _92  and  _93
REMARK   39  A    between atoms: _92  and  _95
REMARK   40  A    between atoms: _95  and  _96
REMARK   41  A    between atoms: _96  and  _97
REMARK   42  A    between atoms: _99  and  _101
REMARK   43  A    between atoms: _101  and  _102
REMARK   44  A    between atoms: _101  and  _104
REMARK   45  A    between atoms: _104  and  _105
REMARK   46  A    between atoms: _108  and  _110
REMARK   47  A    between atoms: _110  and  _111
REMARK   48  A    between atoms: _110  and  _113
REMARK   49  A    between atoms: _113  and  _114
REMARK   50  A    between atoms: _114  and  _115
REMARK   51  A    between atoms: _118  and  _120
REMARK   52  A    between atoms: _120  and  _121
REMARK   53  A    between atoms: _120  and  _123
REMARK   54  A    between atoms: _123  and  _124
REMARK   55  A    between atoms: _124  and  _125
REMARK   56  A    between atoms: _128  and  _130
REMARK   57  A    between atoms: _130  and  _131
REMARK   58  A    between atoms: _130  and  _133
REMARK   59  A    between atoms: _133  and  _134
REMARK   60  A    between atoms: _137  and  _139
REMARK   61  A    between atoms: _139  and  _140
REMARK   62  A    between atoms: _139  and  _142
REMARK   63  A    between atoms: _142  and  _143
REMARK   64  A    between atoms: _146  and  _148
REMARK   65  A    between atoms: _148  and  _149
REMARK   66  A    between atoms: _148  and  _151
REMARK   67  A    between atoms: _151  and  _152
REMARK   68  A    between atoms: _154  and  _156
REMARK   69  A    between atoms: _156  and  _157
REMARK   70  A    between atoms: _156  and  _159
REMARK   71  A    between atoms: _159  and  _160
REMARK   72  A    between atoms: _164  and  ZN_421
REMARK   73  A    between atoms: _165  and  _167
REMARK   74  A    between atoms: _167  and  _168
REMARK   75  A    between atoms: _170  and  _172
REMARK   76  A    between atoms: _172  and  _173
REMARK   77  A    between atoms: _176  and  _178
REMARK   78  A    between atoms: _178  and  _179
REMARK   79  A    between atoms: _178  and  _181
REMARK   80  A    between atoms: _181  and  _182
REMARK   81  A    between atoms: _188  and  _190
REMARK   82  A    between atoms: _190  and  _191
REMARK   83  A    between atoms: _190  and  _193
REMARK   84  A    between atoms: _193  and  _194
REMARK   85  A    between atoms: _194  and  _195
REMARK   86  A    between atoms: _195  and  _196
REMARK   87  A    between atoms: _196  and  _197
REMARK   88  A    between atoms: _201  and  _203
REMARK   89  A    between atoms: _203  and  _204
REMARK   90  A    between atoms: _203  and  _206
REMARK   91  A    between atoms: _209  and  _211
REMARK   92  A    between atoms: _211  and  _212
REMARK   93  A    between atoms: _211  and  _214
REMARK   94  A    between atoms: _214  and  _215
REMARK   95  A    between atoms: _218  and  _220
REMARK   96  A    between atoms: _220  and  _221
REMARK   97  A    between atoms: _220  and  _223
REMARK   98  A    between atoms: _223  and  _224
REMARK   99  A    between atoms: _225  and  ZN_421
REMARK  100  A    between atoms: _229  and  _231
REMARK  101  A    between atoms: _231  and  _232
REMARK  102  A    between atoms: _234  and  _236
REMARK  103  A    between atoms: _236  and  _237
REMARK  104  A    between atoms: _240  and  _242
REMARK  105  A    between atoms: _242  and  _243
REMARK  106  A    between atoms: _242  and  _245
REMARK  107  A    between atoms: _245  and  _246
REMARK  108  A    between atoms: _248  and  _250
REMARK  109  A    between atoms: _250  and  _251
REMARK  110  A    between atoms: _254  and  _256
REMARK  111  A    between atoms: _256  and  _257
REMARK  112  A    between atoms: _256  and  _259
REMARK  113  A    between atoms: _259  and  _260
REMARK  114  A    between atoms: _263  and  _265
REMARK  115  A    between atoms: _265  and  _266
REMARK  116  A    between atoms: _265  and  _268
REMARK  117  A    between atoms: _268  and  _269
REMARK  118  A    between atoms: _269  and  _270
REMARK  119  A    between atoms: _270  and  _271
REMARK  120  A    between atoms: _271  and  _272
REMARK  121  A    between atoms: _276  and  _278
REMARK  122  A    between atoms: _278  and  _279
REMARK  123  A    between atoms: _281  and  _283
REMARK  124  A    between atoms: _283  and  _284
REMARK  125  A    between atoms: _283  and  _286
REMARK  126  A    between atoms: _289  and  _291
REMARK  127  A    between atoms: _291  and  _292
REMARK  128  A    between atoms: _291  and  _294
REMARK  129  A    between atoms: _294  and  _295
REMARK  130  A    between atoms: _295  and  _296
REMARK  131  A    between atoms: _296  and  _297
REMARK  132  A    between atoms: _297  and  _298
REMARK  133  A    between atoms: _302  and  _304
REMARK  134  A    between atoms: _304  and  _305
REMARK  135  A    between atoms: _304  and  _307
REMARK  136  A    between atoms: _310  and  _312
REMARK  137  A    between atoms: _312  and  _313
REMARK  138  A    between atoms: _312  and  _315
REMARK  139  A    between atoms: _315  and  _316
REMARK  140  A    between atoms: _321  and  _323
REMARK  141  A    between atoms: _323  and  _324
REMARK  142  A    between atoms: _323  and  _326
REMARK  143  A    between atoms: _326  and  _327
REMARK  144  A    between atoms: _330  and  _332
REMARK  145  A    between atoms: _332  and  _333
REMARK  146  A    between atoms: _332  and  _335
REMARK  147  A    between atoms: _335  and  _336
REMARK  148  A    between atoms: _339  and  _341
REMARK  149  A    between atoms: _341  and  _342
REMARK  150  A    between atoms: _341  and  _344
REMARK  151  A    between atoms: _344  and  _345
REMARK  152  A    between atoms: _348  and  _350
REMARK  153  A    between atoms: _350  and  _351
REMARK  154  A    between atoms: _350  and  _353
REMARK  155  A    between atoms: _353  and  _354
REMARK  156  A    between atoms: _357  and  _359
REMARK  157  A    between atoms: _359  and  _360
REMARK  158  A    between atoms: _359  and  _362
REMARK  159  A    between atoms: _362  and  _363
REMARK  160  A    between atoms: _366  and  _368
REMARK  161  A    between atoms: _368  and  _369
REMARK  162  A    between atoms: _368  and  _371
REMARK  163  A    between atoms: _371  and  _372
REMARK  164  A    between atoms: _372  and  _373
REMARK  165  A    between atoms: _373  and  _374
REMARK  166  A    between atoms: _383  and  _385
REMARK  167  A    between atoms: _385  and  _386
REMARK  168  A    between atoms: _385  and  _388
REMARK  169  A    between atoms: _388  and  _389
REMARK  170  A    between atoms: _392  and  _394
REMARK  171  A    between atoms: _394  and  _395
REMARK  172  A    between atoms: _394  and  _397
REMARK  173  A    between atoms: _397  and  _398
REMARK  174  A    between atoms: _398  and  _399
REMARK  175  A    between atoms: _399  and  _400
REMARK  176  A    between atoms: _409  and  _411
REMARK  177  A    between atoms: _411  and  _412
REMARK  178  A    between atoms: _411  and  _414
REMARK  179  A    between atoms: _414  and  _415
REMARK                            x       y       z     vdW  Elec       q    Type
REMARK                         _______ _______ _______ _____ _____    ______ ____
ROOT
ATOM      1  O   HOH     1       7.672   6.300   0.703  0.00  0.00    +0.000 OA
ENDROOT
TORSDOF 0
REMARK  Name = ../refined-set-2016/3c52/3c52_pocket.pdb
REMARK  179 active torsions:
REMARK  status: ('A' for Active; 'I' for Inactive)
REMARK    1  A    between atoms: _1  and  _3
REMARK    2  A    between atoms: _3  and  _4
REMARK    3  A    between atoms: _7  and  _9
REMARK    4  A    between atoms: _9  and  _10
REMARK    5  A    between atoms: _9  and  _12
REMARK    6  A    between atoms: _12  and  _13
REMARK    7  A    between atoms: _19  and  _21
REMARK    8  A    between atoms: _21  and  _22
REMARK    9  A    between atoms: _21  and  _24
REMARK   10  A    between atoms: _24  and  _25
REMARK   11  A    between atoms: _30  and  _32
REMARK   12  A    between atoms: _32  and  _33
REMARK   13  A    between atoms: _32  and  _35
REMARK   14  A    between atoms: _35  and  _36
REMARK   15  A    between atoms: _36  and  _37
REMARK   16  A    between atoms: _42  and  _44
REMARK   17  A    between atoms: _44  and  _45
REMARK   18  A    between atoms: _44  and  _47
REMARK   19  A    between atoms: _47  and  _48
REMARK   20  A    between atoms: _50  and  _52
REMARK   21  A    between atoms: _52  and  _53
REMARK   22  A    between atoms: _52  and  _55
REMARK   23  A    between atoms: _55  and  _56
REMARK   24  A    between atoms: _61  and  _63
REMARK   25  A    between atoms: _63  and  _64
REMARK   26  A    between atoms: _63  and  _66
REMARK   27  A    between atoms: _66  and  _67
REMARK   28  A    between atoms: _70  and  _72
REMARK   29  A    between atoms: _72  and  _73
REMARK   30  A    between atoms: _72  and  _75
REMARK   31  A    between atoms: _75  and  _76
REMARK   32  A    between atoms: _79  and  _81
REMARK   33  A    between atoms: _81  and  _82
REMARK   34  A    between atoms: _81  and  _84
REMARK   35  A    between atoms: _84  and  _85
REMARK   36  A    between atoms: _89  and  ZN_421
REMARK   37  A    between atoms: _90  and  _92
REMARK   38  A    between atoms: _92  and  _93
REMARK   39  A    between atoms: _92  and  _95
REMARK   40  A    between atoms: _95  and  _96
REMARK   41  A    between atoms: _96  and  _97
REMARK   42  A    between atoms: _99  and  _101
REMARK   43  A    between atoms: _101  and  _102
REMARK   44  A    between atoms: _101  and  _104
REMARK   45  A    between atoms: _104  and  _105
REMARK   46  A    between atoms: _108  and  _110
REMARK   47  A    between atoms: _110  and  _111
REMARK   48  A    between atoms: _110  and  _113
REMARK   49  A    between atoms: _113  and  _114
REMARK   50  A    between atoms: _114  and  _115
REMARK   51  A    between atoms: _118  and  _120
REMARK   52  A    between atoms: _120  and  _121
REMARK   53  A    between atoms: _120  and  _123
REMARK   54  A    between atoms: _123  and  _124
REMARK   55  A    between atoms: _124  and  _125
REMARK   56  A    between atoms: _128  and  _130
REMARK   57  A    between atoms: _130  and  _131
REMARK   58  A    between atoms: _130  and  _133
REMARK   59  A    between atoms: _133  and  _134
REMARK   60  A    between atoms: _137  and  _139
REMARK   61  A    between atoms: _139  and  _140
REMARK   62  A    between atoms: _139  and  _142
REMARK   63  A    between atoms: _142  and  _143
REMARK   64  A    between atoms: _146  and  _148
REMARK   65  A    between atoms: _148  and  _149
REMARK   66  A    between atoms: _148  and  _151
REMARK   67  A    between atoms: _151  and  _152
REMARK   68  A    between atoms: _154  and  _156
REMARK   69  A    between atoms: _156  and  _157
REMARK   70  A    between atoms: _156  and  _159
REMARK   71  A    between atoms: _159  and  _160
REMARK   72  A    between atoms: _164  and  ZN_421
REMARK   73  A    between atoms: _165  and  _167
REMARK   74  A    between atoms: _167  and  _168
REMARK   75  A    between atoms: _170  and  _172
REMARK   76  A    between atoms: _172  and  _173
REMARK   77  A    between atoms: _176  and  _178
REMARK   78  A    between atoms: _178  and  _179
REMARK   79  A    between atoms: _178  and  _181
REMARK   80  A    between atoms: _181  and  _182
REMARK   81  A    between atoms: _188  and  _190
REMARK   82  A    between atoms: _190  and  _191
REMARK   83  A    between atoms: _190  and  _193
REMARK   84  A    between atoms: _193  and  _194
REMARK   85  A    between atoms: _194  and  _195
REMARK   86  A    between atoms: _195  and  _196
REMARK   87  A    between atoms: _196  and  _197
REMARK   88  A    between atoms: _201  and  _203
REMARK   89  A    between atoms: _203  and  _204
REMARK   90  A    between atoms: _203  and  _206
REMARK   91  A    between atoms: _209  and  _211
REMARK   92  A    between atoms: _211  and  _212
REMARK   93  A    between atoms: _211  and  _214
REMARK   94  A    between atoms: _214  and  _215
REMARK   95  A    between atoms: _218  and  _220
REMARK   96  A    between atoms: _220  and  _221
REMARK   97  A    between atoms: _220  and  _223
REMARK   98  A    between atoms: _223  and  _224
REMARK   99  A    between atoms: _225  and  ZN_421
REMARK  100  A    between atoms: _229  and  _231
REMARK  101  A    between atoms: _231  and  _232
REMARK  102  A    between atoms: _234  and  _236
REMARK  103  A    between atoms: _236  and  _237
REMARK  104  A    between atoms: _240  and  _242
REMARK  105  A    between atoms: _242  and  _243
REMARK  106  A    between atoms: _242  and  _245
REMARK  107  A    between atoms: _245  and  _246
REMARK  108  A    between atoms: _248  and  _250
REMARK  109  A    between atoms: _250  and  _251
REMARK  110  A    between atoms: _254  and  _256
REMARK  111  A    between atoms: _256  and  _257
REMARK  112  A    between atoms: _256  and  _259
REMARK  113  A    between atoms: _259  and  _260
REMARK  114  A    between atoms: _263  and  _265
REMARK  115  A    between atoms: _265  and  _266
REMARK  116  A    between atoms: _265  and  _268
REMARK  117  A    between atoms: _268  and  _269
REMARK  118  A    between atoms: _269  and  _270
REMARK  119  A    between atoms: _270  and  _271
REMARK  120  A    between atoms: _271  and  _272
REMARK  121  A    between atoms: _276  and  _278
REMARK  122  A    between atoms: _278  and  _279
REMARK  123  A    between atoms: _281  and  _283
REMARK  124  A    between atoms: _283  and  _284
REMARK  125  A    between atoms: _283  and  _286
REMARK  126  A    between atoms: _289  and  _291
REMARK  127  A    between atoms: _291  and  _292
REMARK  128  A    between atoms: _291  and  _294
REMARK  129  A    between atoms: _294  and  _295
REMARK  130  A    between atoms: _295  and  _296
REMARK  131  A    between atoms: _296  and  _297
REMARK  132  A    between atoms: _297  and  _298
REMARK  133  A    between atoms: _302  and  _304
REMARK  134  A    between atoms: _304  and  _305
REMARK  135  A    between atoms: _304  and  _307
REMARK  136  A    between atoms: _310  and  _312
REMARK  137  A    between atoms: _312  and  _313
REMARK  138  A    between atoms: _312  and  _315
REMARK  139  A    between atoms: _315  and  _316
REMARK  140  A    between atoms: _321  and  _323
REMARK  141  A    between atoms: _323  and  _324
REMARK  142  A    between atoms: _323  and  _326
REMARK  143  A    between atoms: _326  and  _327
REMARK  144  A    between atoms: _330  and  _332
REMARK  145  A    between atoms: _332  and  _333
REMARK  146  A    between atoms: _332  and  _335
REMARK  147  A    between atoms: _335  and  _336
REMARK  148  A    between atoms: _339  and  _341
REMARK  149  A    between atoms: _341  and  _342
REMARK  150  A    between atoms: _341  and  _344
REMARK  151  A    between atoms: _344  and  _345
REMARK  152  A    between atoms: _348  and  _350
REMARK  153  A    between atoms: _350  and  _351
REMARK  154  A    between atoms: _350  and  _353
REMARK  155  A    between atoms: _353  and  _354
REMARK  156  A    between atoms: _357  and  _359
REMARK  157  A    between atoms: _359  and  _360
REMARK  158  A    between atoms: _359  and  _362
REMARK  159  A    between atoms: _362  and  _363
REMARK  160  A    between atoms: _366  and  _368
REMARK  161  A    between atoms: _368  and  _369
REMARK  162  A    between atoms: _368  and  _371
REMARK  163  A    between atoms: _371  and  _372
REMARK  164  A    between atoms: _372  and  _373
REMARK  165  A    between atoms: _373  and  _374
REMARK  166  A    between atoms: _383  and  _385
REMARK  167  A    between atoms: _385  and  _386
REMARK  168  A    between atoms: _385  and  _388
REMARK  169  A    between atoms: _388  and  _389
REMARK  170  A    between atoms: _392  and  _394
REMARK  171  A    between atoms: _394  and  _395
REMARK  172  A    between atoms: _394  and  _397
REMARK  173  A    between atoms: _397  and  _398
REMARK  174  A    between atoms: _398  and  _399
REMARK  175  A    between atoms: _399  and  _400
REMARK  176  A    between atoms: _409  and  _411
REMARK  177  A    between atoms: _411  and  _412
REMARK  178  A    between atoms: _411  and  _414
REMARK  179  A    between atoms: _414  and  _415
REMARK                            x       y       z     vdW  Elec       q    Type
REMARK                         _______ _______ _______ _____ _____    ______ ____
ROOT
ATOM      1  O   HOH     1       9.733   2.210   5.803  0.00  0.00    +0.000 OA
ENDROOT
TORSDOF 0
REMARK  Name = ../refined-set-2016/3c52/3c52_pocket.pdb
REMARK  179 active torsions:
REMARK  status: ('A' for Active; 'I' for Inactive)
REMARK    1  A    between atoms: _1  and  _3
REMARK    2  A    between atoms: _3  and  _4
REMARK    3  A    between atoms: _7  and  _9
REMARK    4  A    between atoms: _9  and  _10
REMARK    5  A    between atoms: _9  and  _12
REMARK    6  A    between atoms: _12  and  _13
REMARK    7  A    between atoms: _19  and  _21
REMARK    8  A    between atoms: _21  and  _22
REMARK    9  A    between atoms: _21  and  _24
REMARK   10  A    between atoms: _24  and  _25
REMARK   11  A    between atoms: _30  and  _32
REMARK   12  A    between atoms: _32  and  _33
REMARK   13  A    between atoms: _32  and  _35
REMARK   14  A    between atoms: _35  and  _36
REMARK   15  A    between atoms: _36  and  _37
REMARK   16  A    between atoms: _42  and  _44
REMARK   17  A    between atoms: _44  and  _45
REMARK   18  A    between atoms: _44  and  _47
REMARK   19  A    between atoms: _47  and  _48
REMARK   20  A    between atoms: _50  and  _52
REMARK   21  A    between atoms: _52  and  _53
REMARK   22  A    between atoms: _52  and  _55
REMARK   23  A    between atoms: _55  and  _56
REMARK   24  A    between atoms: _61  and  _63
REMARK   25  A    between atoms: _63  and  _64
REMARK   26  A    between atoms: _63  and  _66
REMARK   27  A    between atoms: _66  and  _67
REMARK   28  A    between atoms: _70  and  _72
REMARK   29  A    between atoms: _72  and  _73
REMARK   30  A    between atoms: _72  and  _75
REMARK   31  A    between atoms: _75  and  _76
REMARK   32  A    between atoms: _79  and  _81
REMARK   33  A    between atoms: _81  and  _82
REMARK   34  A    between atoms: _81  and  _84
REMARK   35  A    between atoms: _84  and  _85
REMARK   36  A    between atoms: _89  and  ZN_421
REMARK   37  A    between atoms: _90  and  _92
REMARK   38  A    between atoms: _92  and  _93
REMARK   39  A    between atoms: _92  and  _95
REMARK   40  A    between atoms: _95  and  _96
REMARK   41  A    between atoms: _96  and  _97
REMARK   42  A    between atoms: _99  and  _101
REMARK   43  A    between atoms: _101  and  _102
REMARK   44  A    between atoms: _101  and  _104
REMARK   45  A    between atoms: _104  and  _105
REMARK   46  A    between atoms: _108  and  _110
REMARK   47  A    between atoms: _110  and  _111
REMARK   48  A    between atoms: _110  and  _113
REMARK   49  A    between atoms: _113  and  _114
REMARK   50  A    between atoms: _114  and  _115
REMARK   51  A    between atoms: _118  and  _120
REMARK   52  A    between atoms: _120  and  _121
REMARK   53  A    between atoms: _120  and  _123
REMARK   54  A    between atoms: _123  and  _124
REMARK   55  A    between atoms: _124  and  _125
REMARK   56  A    between atoms: _128  and  _130
REMARK   57  A    between atoms: _130  and  _131
REMARK   58  A    between atoms: _130  and  _133
REMARK   59  A    between atoms: _133  and  _134
REMARK   60  A    between atoms: _137  and  _139
REMARK   61  A    between atoms: _139  and  _140
REMARK   62  A    between atoms: _139  and  _142
REMARK   63  A    between atoms: _142  and  _143
REMARK   64  A    between atoms: _146  and  _148
REMARK   65  A    between atoms: _148  and  _149
REMARK   66  A    between atoms: _148  and  _151
REMARK   67  A    between atoms: _151  and  _152
REMARK   68  A    between atoms: _154  and  _156
REMARK   69  A    between atoms: _156  and  _157
REMARK   70  A    between atoms: _156  and  _159
REMARK   71  A    between atoms: _159  and  _160
REMARK   72  A    between atoms: _164  and  ZN_421
REMARK   73  A    between atoms: _165  and  _167
REMARK   74  A    between atoms: _167  and  _168
REMARK   75  A    between atoms: _170  and  _172
REMARK   76  A    between atoms: _172  and  _173
REMARK   77  A    between atoms: _176  and  _178
REMARK   78  A    between atoms: _178  and  _179
REMARK   79  A    between atoms: _178  and  _181
REMARK   80  A    between atoms: _181  and  _182
REMARK   81  A    between atoms: _188  and  _190
REMARK   82  A    between atoms: _190  and  _191
REMARK   83  A    between atoms: _190  and  _193
REMARK   84  A    between atoms: _193  and  _194
REMARK   85  A    between atoms: _194  and  _195
REMARK   86  A    between atoms: _195  and  _196
REMARK   87  A    between atoms: _196  and  _197
REMARK   88  A    between atoms: _201  and  _203
REMARK   89  A    between atoms: _203  and  _204
REMARK   90  A    between atoms: _203  and  _206
REMARK   91  A    between atoms: _209  and  _211
REMARK   92  A    between atoms: _211  and  _212
REMARK   93  A    between atoms: _211  and  _214
REMARK   94  A    between atoms: _214  and  _215
REMARK   95  A    between atoms: _218  and  _220
REMARK   96  A    between atoms: _220  and  _221
REMARK   97  A    between atoms: _220  and  _223
REMARK   98  A    between atoms: _223  and  _224
REMARK   99  A    between atoms: _225  and  ZN_421
REMARK  100  A    between atoms: _229  and  _231
REMARK  101  A    between atoms: _231  and  _232
REMARK  102  A    between atoms: _234  and  _236
REMARK  103  A    between atoms: _236  and  _237
REMARK  104  A    between atoms: _240  and  _242
REMARK  105  A    between atoms: _242  and  _243
REMARK  106  A    between atoms: _242  and  _245
REMARK  107  A    between atoms: _245  and  _246
REMARK  108  A    between atoms: _248  and  _250
REMARK  109  A    between atoms: _250  and  _251
REMARK  110  A    between atoms: _254  and  _256
REMARK  111  A    between atoms: _256  and  _257
REMARK  112  A    between atoms: _256  and  _259
REMARK  113  A    between atoms: _259  and  _260
REMARK  114  A    between atoms: _263  and  _265
REMARK  115  A    between atoms: _265  and  _266
REMARK  116  A    between atoms: _265  and  _268
REMARK  117  A    between atoms: _268  and  _269
REMARK  118  A    between atoms: _269  and  _270
REMARK  119  A    between atoms: _270  and  _271
REMARK  120  A    between atoms: _271  and  _272
REMARK  121  A    between atoms: _276  and  _278
REMARK  122  A    between atoms: _278  and  _279
REMARK  123  A    between atoms: _281  and  _283
REMARK  124  A    between atoms: _283  and  _284
REMARK  125  A    between atoms: _283  and  _286
REMARK  126  A    between atoms: _289  and  _291
REMARK  127  A    between atoms: _291  and  _292
REMARK  128  A    between atoms: _291  and  _294
REMARK  129  A    between atoms: _294  and  _295
REMARK  130  A    between atoms: _295  and  _296
REMARK  131  A    between atoms: _296  and  _297
REMARK  132  A    between atoms: _297  and  _298
REMARK  133  A    between atoms: _302  and  _304
REMARK  134  A    between atoms: _304  and  _305
REMARK  135  A    between atoms: _304  and  _307
REMARK  136  A    between atoms: _310  and  _312
REMARK  137  A    between atoms: _312  and  _313
REMARK  138  A    between atoms: _312  and  _315
REMARK  139  A    between atoms: _315  and  _316
REMARK  140  A    between atoms: _321  and  _323
REMARK  141  A    between atoms: _323  and  _324
REMARK  142  A    between atoms: _323  and  _326
REMARK  143  A    between atoms: _326  and  _327
REMARK  144  A    between atoms: _330  and  _332
REMARK  145  A    between atoms: _332  and  _333
REMARK  146  A    between atoms: _332  and  _335
REMARK  147  A    between atoms: _335  and  _336
REMARK  148  A    between atoms: _339  and  _341
REMARK  149  A    between atoms: _341  and  _342
REMARK  150  A    between atoms: _341  and  _344
REMARK  151  A    between atoms: _344  and  _345
REMARK  152  A    between atoms: _348  and  _350
REMARK  153  A    between atoms: _350  and  _351
REMARK  154  A    between atoms: _350  and  _353
REMARK  155  A    between atoms: _353  and  _354
REMARK  156  A    between atoms: _357  and  _359
REMARK  157  A    between atoms: _359  and  _360
REMARK  158  A    between atoms: _359  and  _362
REMARK  159  A    between atoms: _362  and  _363
REMARK  160  A    between atoms: _366  and  _368
REMARK  161  A    between atoms: _368  and  _369
REMARK  162  A    between atoms: _368  and  _371
REMARK  163  A    between atoms: _371  and  _372
REMARK  164  A    between atoms: _372  and  _373
REMARK  165  A    between atoms: _373  and  _374
REMARK  166  A    between atoms: _383  and  _385
REMARK  167  A    between atoms: _385  and  _386
REMARK  168  A    between atoms: _385  and  _388
REMARK  169  A    between atoms: _388  and  _389
REMARK  170  A    between atoms: _392  and  _394
REMARK  171  A    between atoms: _394  and  _395
REMARK  172  A    between atoms: _394  and  _397
REMARK  173  A    between atoms: _397  and  _398
REMARK  174  A    between atoms: _398  and  _399
REMARK  175  A    between atoms: _399  and  _400
REMARK  176  A    between atoms: _409  and  _411
REMARK  177  A    between atoms: _411  and  _412
REMARK  178  A    between atoms: _411  and  _414
REMARK  179  A    between atoms: _414  and  _415
REMARK                            x       y       z     vdW  Elec       q    Type
REMARK                         _______ _______ _______ _____ _____    ______ ____
ROOT
ATOM      1  O   HOH     1       6.882   2.473   5.924  0.00  0.00    +0.000 OA
ENDROOT
TORSDOF 0
REMARK  Name = ../refined-set-2016/3c52/3c52_pocket.pdb
REMARK  179 active torsions:
REMARK  status: ('A' for Active; 'I' for Inactive)
REMARK    1  A    between atoms: _1  and  _3
REMARK    2  A    between atoms: _3  and  _4
REMARK    3  A    between atoms: _7  and  _9
REMARK    4  A    between atoms: _9  and  _10
REMARK    5  A    between atoms: _9  and  _12
REMARK    6  A    between atoms: _12  and  _13
REMARK    7  A    between atoms: _19  and  _21
REMARK    8  A    between atoms: _21  and  _22
REMARK    9  A    between atoms: _21  and  _24
REMARK   10  A    between atoms: _24  and  _25
REMARK   11  A    between atoms: _30  and  _32
REMARK   12  A    between atoms: _32  and  _33
REMARK   13  A    between atoms: _32  and  _35
REMARK   14  A    between atoms: _35  and  _36
REMARK   15  A    between atoms: _36  and  _37
REMARK   16  A    between atoms: _42  and  _44
REMARK   17  A    between atoms: _44  and  _45
REMARK   18  A    between atoms: _44  and  _47
REMARK   19  A    between atoms: _47  and  _48
REMARK   20  A    between atoms: _50  and  _52
REMARK   21  A    between atoms: _52  and  _53
REMARK   22  A    between atoms: _52  and  _55
REMARK   23  A    between atoms: _55  and  _56
REMARK   24  A    between atoms: _61  and  _63
REMARK   25  A    between atoms: _63  and  _64
REMARK   26  A    between atoms: _63  and  _66
REMARK   27  A    between atoms: _66  and  _67
REMARK   28  A    between atoms: _70  and  _72
REMARK   29  A    between atoms: _72  and  _73
REMARK   30  A    between atoms: _72  and  _75
REMARK   31  A    between atoms: _75  and  _76
REMARK   32  A    between atoms: _79  and  _81
REMARK   33  A    between atoms: _81  and  _82
REMARK   34  A    between atoms: _81  and  _84
REMARK   35  A    between atoms: _84  and  _85
REMARK   36  A    between atoms: _89  and  ZN_421
REMARK   37  A    between atoms: _90  and  _92
REMARK   38  A    between atoms: _92  and  _93
REMARK   39  A    between atoms: _92  and  _95
REMARK   40  A    between atoms: _95  and  _96
REMARK   41  A    between atoms: _96  and  _97
REMARK   42  A    between atoms: _99  and  _101
REMARK   43  A    between atoms: _101  and  _102
REMARK   44  A    between atoms: _101  and  _104
REMARK   45  A    between atoms: _104  and  _105
REMARK   46  A    between atoms: _108  and  _110
REMARK   47  A    between atoms: _110  and  _111
REMARK   48  A    between atoms: _110  and  _113
REMARK   49  A    between atoms: _113  and  _114
REMARK   50  A    between atoms: _114  and  _115
REMARK   51  A    between atoms: _118  and  _120
REMARK   52  A    between atoms: _120  and  _121
REMARK   53  A    between atoms: _120  and  _123
REMARK   54  A    between atoms: _123  and  _124
REMARK   55  A    between atoms: _124  and  _125
REMARK   56  A    between atoms: _128  and  _130
REMARK   57  A    between atoms: _130  and  _131
REMARK   58  A    between atoms: _130  and  _133
REMARK   59  A    between atoms: _133  and  _134
REMARK   60  A    between atoms: _137  and  _139
REMARK   61  A    between atoms: _139  and  _140
REMARK   62  A    between atoms: _139  and  _142
REMARK   63  A    between atoms: _142  and  _143
REMARK   64  A    between atoms: _146  and  _148
REMARK   65  A    between atoms: _148  and  _149
REMARK   66  A    between atoms: _148  and  _151
REMARK   67  A    between atoms: _151  and  _152
REMARK   68  A    between atoms: _154  and  _156
REMARK   69  A    between atoms: _156  and  _157
REMARK   70  A    between atoms: _156  and  _159
REMARK   71  A    between atoms: _159  and  _160
REMARK   72  A    between atoms: _164  and  ZN_421
REMARK   73  A    between atoms: _165  and  _167
REMARK   74  A    between atoms: _167  and  _168
REMARK   75  A    between atoms: _170  and  _172
REMARK   76  A    between atoms: _172  and  _173
REMARK   77  A    between atoms: _176  and  _178
REMARK   78  A    between atoms: _178  and  _179
REMARK   79  A    between atoms: _178  and  _181
REMARK   80  A    between atoms: _181  and  _182
REMARK   81  A    between atoms: _188  and  _190
REMARK   82  A    between atoms: _190  and  _191
REMARK   83  A    between atoms: _190  and  _193
REMARK   84  A    between atoms: _193  and  _194
REMARK   85  A    between atoms: _194  and  _195
REMARK   86  A    between atoms: _195  and  _196
REMARK   87  A    between atoms: _196  and  _197
REMARK   88  A    between atoms: _201  and  _203
REMARK   89  A    between atoms: _203  and  _204
REMARK   90  A    between atoms: _203  and  _206
REMARK   91  A    between atoms: _209  and  _211
REMARK   92  A    between atoms: _211  and  _212
REMARK   93  A    between atoms: _211  and  _214
REMARK   94  A    between atoms: _214  and  _215
REMARK   95  A    between atoms: _218  and  _220
REMARK   96  A    between atoms: _220  and  _221
REMARK   97  A    between atoms: _220  and  _223
REMARK   98  A    between atoms: _223  and  _224
REMARK   99  A    between atoms: _225  and  ZN_421
REMARK  100  A    between atoms: _229  and  _231
REMARK  101  A    between atoms: _231  and  _232
REMARK  102  A    between atoms: _234  and  _236
REMARK  103  A    between atoms: _236  and  _237
REMARK  104  A    between atoms: _240  and  _242
REMARK  105  A    between atoms: _242  and  _243
REMARK  106  A    between atoms: _242  and  _245
REMARK  107  A    between atoms: _245  and  _246
REMARK  108  A    between atoms: _248  and  _250
REMARK  109  A    between atoms: _250  and  _251
REMARK  110  A    between atoms: _254  and  _256
REMARK  111  A    between atoms: _256  and  _257
REMARK  112  A    between atoms: _256  and  _259
REMARK  113  A    between atoms: _259  and  _260
REMARK  114  A    between atoms: _263  and  _265
REMARK  115  A    between atoms: _265  and  _266
REMARK  116  A    between atoms: _265  and  _268
REMARK  117  A    between atoms: _268  and  _269
REMARK  118  A    between atoms: _269  and  _270
REMARK  119  A    between atoms: _270  and  _271
REMARK  120  A    between atoms: _271  and  _272
REMARK  121  A    between atoms: _276  and  _278
REMARK  122  A    between atoms: _278  and  _279
REMARK  123  A    between atoms: _281  and  _283
REMARK  124  A    between atoms: _283  and  _284
REMARK  125  A    between atoms: _283  and  _286
REMARK  126  A    between atoms: _289  and  _291
REMARK  127  A    between atoms: _291  and  _292
REMARK  128  A    between atoms: _291  and  _294
REMARK  129  A    between atoms: _294  and  _295
REMARK  130  A    between atoms: _295  and  _296
REMARK  131  A    between atoms: _296  and  _297
REMARK  132  A    between atoms: _297  and  _298
REMARK  133  A    between atoms: _302  and  _304
REMARK  134  A    between atoms: _304  and  _305
REMARK  135  A    between atoms: _304  and  _307
REMARK  136  A    between atoms: _310  and  _312
REMARK  137  A    between atoms: _312  and  _313
REMARK  138  A    between atoms: _312  and  _315
REMARK  139  A    between atoms: _315  and  _316
REMARK  140  A    between atoms: _321  and  _323
REMARK  141  A    between atoms: _323  and  _324
REMARK  142  A    between atoms: _323  and  _326
REMARK  143  A    between atoms: _326  and  _327
REMARK  144  A    between atoms: _330  and  _332
REMARK  145  A    between atoms: _332  and  _333
REMARK  146  A    between atoms: _332  and  _335
REMARK  147  A    between atoms: _335  and  _336
REMARK  148  A    between atoms: _339  and  _341
REMARK  149  A    between atoms: _341  and  _342
REMARK  150  A    between atoms: _341  and  _344
REMARK  151  A    between atoms: _344  and  _345
REMARK  152  A    between atoms: _348  and  _350
REMARK  153  A    between atoms: _350  and  _351
REMARK  154  A    between atoms: _350  and  _353
REMARK  155  A    between atoms: _353  and  _354
REMARK  156  A    between atoms: _357  and  _359
REMARK  157  A    between atoms: _359  and  _360
REMARK  158  A    between atoms: _359  and  _362
REMARK  159  A    between atoms: _362  and  _363
REMARK  160  A    between atoms: _366  and  _368
REMARK  161  A    between atoms: _368  and  _369
REMARK  162  A    between atoms: _368  and  _371
REMARK  163  A    between atoms: _371  and  _372
REMARK  164  A    between atoms: _372  and  _373
REMARK  165  A    between atoms: _373  and  _374
REMARK  166  A    between atoms: _383  and  _385
REMARK  167  A    between atoms: _385  and  _386
REMARK  168  A    between atoms: _385  and  _388
REMARK  169  A    between atoms: _388  and  _389
REMARK  170  A    between atoms: _392  and  _394
REMARK  171  A    between atoms: _394  and  _395
REMARK  172  A    between atoms: _394  and  _397
REMARK  173  A    between atoms: _397  and  _398
REMARK  174  A    between atoms: _398  and  _399
REMARK  175  A    between atoms: _399  and  _400
REMARK  176  A    between atoms: _409  and  _411
REMARK  177  A    between atoms: _411  and  _412
REMARK  178  A    between atoms: _411  and  _414
REMARK  179  A    between atoms: _414  and  _415
REMARK                            x       y       z     vdW  Elec       q    Type
REMARK                         _______ _______ _______ _____ _____    ______ ____
ROOT
ATOM      1  O   HOH     1      10.470   1.508   3.748  0.00  0.00    +0.000 OA
ENDROOT
TORSDOF 0
REMARK  Name = ../refined-set-2016/3c52/3c52_pocket.pdb
REMARK  179 active torsions:
REMARK  status: ('A' for Active; 'I' for Inactive)
REMARK    1  A    between atoms: _1  and  _3
REMARK    2  A    between atoms: _3  and  _4
REMARK    3  A    between atoms: _7  and  _9
REMARK    4  A    between atoms: _9  and  _10
REMARK    5  A    between atoms: _9  and  _12
REMARK    6  A    between atoms: _12  and  _13
REMARK    7  A    between atoms: _19  and  _21
REMARK    8  A    between atoms: _21  and  _22
REMARK    9  A    between atoms: _21  and  _24
REMARK   10  A    between atoms: _24  and  _25
REMARK   11  A    between atoms: _30  and  _32
REMARK   12  A    between atoms: _32  and  _33
REMARK   13  A    between atoms: _32  and  _35
REMARK   14  A    between atoms: _35  and  _36
REMARK   15  A    between atoms: _36  and  _37
REMARK   16  A    between atoms: _42  and  _44
REMARK   17  A    between atoms: _44  and  _45
REMARK   18  A    between atoms: _44  and  _47
REMARK   19  A    between atoms: _47  and  _48
REMARK   20  A    between atoms: _50  and  _52
REMARK   21  A    between atoms: _52  and  _53
REMARK   22  A    between atoms: _52  and  _55
REMARK   23  A    between atoms: _55  and  _56
REMARK   24  A    between atoms: _61  and  _63
REMARK   25  A    between atoms: _63  and  _64
REMARK   26  A    between atoms: _63  and  _66
REMARK   27  A    between atoms: _66  and  _67
REMARK   28  A    between atoms: _70  and  _72
REMARK   29  A    between atoms: _72  and  _73
REMARK   30  A    between atoms: _72  and  _75
REMARK   31  A    between atoms: _75  and  _76
REMARK   32  A    between atoms: _79  and  _81
REMARK   33  A    between atoms: _81  and  _82
REMARK   34  A    between atoms: _81  and  _84
REMARK   35  A    between atoms: _84  and  _85
REMARK   36  A    between atoms: _89  and  ZN_421
REMARK   37  A    between atoms: _90  and  _92
REMARK   38  A    between atoms: _92  and  _93
REMARK   39  A    between atoms: _92  and  _95
REMARK   40  A    between atoms: _95  and  _96
REMARK   41  A    between atoms: _96  and  _97
REMARK   42  A    between atoms: _99  and  _101
REMARK   43  A    between atoms: _101  and  _102
REMARK   44  A    between atoms: _101  and  _104
REMARK   45  A    between atoms: _104  and  _105
REMARK   46  A    between atoms: _108  and  _110
REMARK   47  A    between atoms: _110  and  _111
REMARK   48  A    between atoms: _110  and  _113
REMARK   49  A    between atoms: _113  and  _114
REMARK   50  A    between atoms: _114  and  _115
REMARK   51  A    between atoms: _118  and  _120
REMARK   52  A    between atoms: _120  and  _121
REMARK   53  A    between atoms: _120  and  _123
REMARK   54  A    between atoms: _123  and  _124
REMARK   55  A    between atoms: _124  and  _125
REMARK   56  A    between atoms: _128  and  _130
REMARK   57  A    between atoms: _130  and  _131
REMARK   58  A    between atoms: _130  and  _133
REMARK   59  A    between atoms: _133  and  _134
REMARK   60  A    between atoms: _137  and  _139
REMARK   61  A    between atoms: _139  and  _140
REMARK   62  A    between atoms: _139  and  _142
REMARK   63  A    between atoms: _142  and  _143
REMARK   64  A    between atoms: _146  and  _148
REMARK   65  A    between atoms: _148  and  _149
REMARK   66  A    between atoms: _148  and  _151
REMARK   67  A    between atoms: _151  and  _152
REMARK   68  A    between atoms: _154  and  _156
REMARK   69  A    between atoms: _156  and  _157
REMARK   70  A    between atoms: _156  and  _159
REMARK   71  A    between atoms: _159  and  _160
REMARK   72  A    between atoms: _164  and  ZN_421
REMARK   73  A    between atoms: _165  and  _167
REMARK   74  A    between atoms: _167  and  _168
REMARK   75  A    between atoms: _170  and  _172
REMARK   76  A    between atoms: _172  and  _173
REMARK   77  A    between atoms: _176  and  _178
REMARK   78  A    between atoms: _178  and  _179
REMARK   79  A    between atoms: _178  and  _181
REMARK   80  A    between atoms: _181  and  _182
REMARK   81  A    between atoms: _188  and  _190
REMARK   82  A    between atoms: _190  and  _191
REMARK   83  A    between atoms: _190  and  _193
REMARK   84  A    between atoms: _193  and  _194
REMARK   85  A    between atoms: _194  and  _195
REMARK   86  A    between atoms: _195  and  _196
REMARK   87  A    between atoms: _196  and  _197
REMARK   88  A    between atoms: _201  and  _203
REMARK   89  A    between atoms: _203  and  _204
REMARK   90  A    between atoms: _203  and  _206
REMARK   91  A    between atoms: _209  and  _211
REMARK   92  A    between atoms: _211  and  _212
REMARK   93  A    between atoms: _211  and  _214
REMARK   94  A    between atoms: _214  and  _215
REMARK   95  A    between atoms: _218  and  _220
REMARK   96  A    between atoms: _220  and  _221
REMARK   97  A    between atoms: _220  and  _223
REMARK   98  A    between atoms: _223  and  _224
REMARK   99  A    between atoms: _225  and  ZN_421
REMARK  100  A    between atoms: _229  and  _231
REMARK  101  A    between atoms: _231  and  _232
REMARK  102  A    between atoms: _234  and  _236
REMARK  103  A    between atoms: _236  and  _237
REMARK  104  A    between atoms: _240  and  _242
REMARK  105  A    between atoms: _242  and  _243
REMARK  106  A    between atoms: _242  and  _245
REMARK  107  A    between atoms: _245  and  _246
REMARK  108  A    between atoms: _248  and  _250
REMARK  109  A    between atoms: _250  and  _251
REMARK  110  A    between atoms: _254  and  _256
REMARK  111  A    between atoms: _256  and  _257
REMARK  112  A    between atoms: _256  and  _259
REMARK  113  A    between atoms: _259  and  _260
REMARK  114  A    between atoms: _263  and  _265
REMARK  115  A    between atoms: _265  and  _266
REMARK  116  A    between atoms: _265  and  _268
REMARK  117  A    between atoms: _268  and  _269
REMARK  118  A    between atoms: _269  and  _270
REMARK  119  A    between atoms: _270  and  _271
REMARK  120  A    between atoms: _271  and  _272
REMARK  121  A    between atoms: _276  and  _278
REMARK  122  A    between atoms: _278  and  _279
REMARK  123  A    between atoms: _281  and  _283
REMARK  124  A    between atoms: _283  and  _284
REMARK  125  A    between atoms: _283  and  _286
REMARK  126  A    between atoms: _289  and  _291
REMARK  127  A    between atoms: _291  and  _292
REMARK  128  A    between atoms: _291  and  _294
REMARK  129  A    between atoms: _294  and  _295
REMARK  130  A    between atoms: _295  and  _296
REMARK  131  A    between atoms: _296  and  _297
REMARK  132  A    between atoms: _297  and  _298
REMARK  133  A    between atoms: _302  and  _304
REMARK  134  A    between atoms: _304  and  _305
REMARK  135  A    between atoms: _304  and  _307
REMARK  136  A    between atoms: _310  and  _312
REMARK  137  A    between atoms: _312  and  _313
REMARK  138  A    between atoms: _312  and  _315
REMARK  139  A    between atoms: _315  and  _316
REMARK  140  A    between atoms: _321  and  _323
REMARK  141  A    between atoms: _323  and  _324
REMARK  142  A    between atoms: _323  and  _326
REMARK  143  A    between atoms: _326  and  _327
REMARK  144  A    between atoms: _330  and  _332
REMARK  145  A    between atoms: _332  and  _333
REMARK  146  A    between atoms: _332  and  _335
REMARK  147  A    between atoms: _335  and  _336
REMARK  148  A    between atoms: _339  and  _341
REMARK  149  A    between atoms: _341  and  _342
REMARK  150  A    between atoms: _341  and  _344
REMARK  151  A    between atoms: _344  and  _345
REMARK  152  A    between atoms: _348  and  _350
REMARK  153  A    between atoms: _350  and  _351
REMARK  154  A    between atoms: _350  and  _353
REMARK  155  A    between atoms: _353  and  _354
REMARK  156  A    between atoms: _357  and  _359
REMARK  157  A    between atoms: _359  and  _360
REMARK  158  A    between atoms: _359  and  _362
REMARK  159  A    between atoms: _362  and  _363
REMARK  160  A    between atoms: _366  and  _368
REMARK  161  A    between atoms: _368  and  _369
REMARK  162  A    between atoms: _368  and  _371
REMARK  163  A    between atoms: _371  and  _372
REMARK  164  A    between atoms: _372  and  _373
REMARK  165  A    between atoms: _373  and  _374
REMARK  166  A    between atoms: _383  and  _385
REMARK  167  A    between atoms: _385  and  _386
REMARK  168  A    between atoms: _385  and  _388
REMARK  169  A    between atoms: _388  and  _389
REMARK  170  A    between atoms: _392  and  _394
REMARK  171  A    between atoms: _394  and  _395
REMARK  172  A    between atoms: _394  and  _397
REMARK  173  A    between atoms: _397  and  _398
REMARK  174  A    between atoms: _398  and  _399
REMARK  175  A    between atoms: _399  and  _400
REMARK  176  A    between atoms: _409  and  _411
REMARK  177  A    between atoms: _411  and  _412
REMARK  178  A    between atoms: _411  and  _414
REMARK  179  A    between atoms: _414  and  _415
REMARK                            x       y       z     vdW  Elec       q    Type
REMARK                         _______ _______ _______ _____ _____    ______ ____
ROOT
ATOM      1  O   HOH     1       4.370  11.099   1.503  0.00  0.00    +0.000 OA
ENDROOT
TORSDOF 0
REMARK  Name = ../refined-set-2016/3c52/3c52_pocket.pdb
REMARK  179 active torsions:
REMARK  status: ('A' for Active; 'I' for Inactive)
REMARK    1  A    between atoms: _1  and  _3
REMARK    2  A    between atoms: _3  and  _4
REMARK    3  A    between atoms: _7  and  _9
REMARK    4  A    between atoms: _9  and  _10
REMARK    5  A    between atoms: _9  and  _12
REMARK    6  A    between atoms: _12  and  _13
REMARK    7  A    between atoms: _19  and  _21
REMARK    8  A    between atoms: _21  and  _22
REMARK    9  A    between atoms: _21  and  _24
REMARK   10  A    between atoms: _24  and  _25
REMARK   11  A    between atoms: _30  and  _32
REMARK   12  A    between atoms: _32  and  _33
REMARK   13  A    between atoms: _32  and  _35
REMARK   14  A    between atoms: _35  and  _36
REMARK   15  A    between atoms: _36  and  _37
REMARK   16  A    between atoms: _42  and  _44
REMARK   17  A    between atoms: _44  and  _45
REMARK   18  A    between atoms: _44  and  _47
REMARK   19  A    between atoms: _47  and  _48
REMARK   20  A    between atoms: _50  and  _52
REMARK   21  A    between atoms: _52  and  _53
REMARK   22  A    between atoms: _52  and  _55
REMARK   23  A    between atoms: _55  and  _56
REMARK   24  A    between atoms: _61  and  _63
REMARK   25  A    between atoms: _63  and  _64
REMARK   26  A    between atoms: _63  and  _66
REMARK   27  A    between atoms: _66  and  _67
REMARK   28  A    between atoms: _70  and  _72
REMARK   29  A    between atoms: _72  and  _73
REMARK   30  A    between atoms: _72  and  _75
REMARK   31  A    between atoms: _75  and  _76
REMARK   32  A    between atoms: _79  and  _81
REMARK   33  A    between atoms: _81  and  _82
REMARK   34  A    between atoms: _81  and  _84
REMARK   35  A    between atoms: _84  and  _85
REMARK   36  A    between atoms: _89  and  ZN_421
REMARK   37  A    between atoms: _90  and  _92
REMARK   38  A    between atoms: _92  and  _93
REMARK   39  A    between atoms: _92  and  _95
REMARK   40  A    between atoms: _95  and  _96
REMARK   41  A    between atoms: _96  and  _97
REMARK   42  A    between atoms: _99  and  _101
REMARK   43  A    between atoms: _101  and  _102
REMARK   44  A    between atoms: _101  and  _104
REMARK   45  A    between atoms: _104  and  _105
REMARK   46  A    between atoms: _108  and  _110
REMARK   47  A    between atoms: _110  and  _111
REMARK   48  A    between atoms: _110  and  _113
REMARK   49  A    between atoms: _113  and  _114
REMARK   50  A    between atoms: _114  and  _115
REMARK   51  A    between atoms: _118  and  _120
REMARK   52  A    between atoms: _120  and  _121
REMARK   53  A    between atoms: _120  and  _123
REMARK   54  A    between atoms: _123  and  _124
REMARK   55  A    between atoms: _124  and  _125
REMARK   56  A    between atoms: _128  and  _130
REMARK   57  A    between atoms: _130  and  _131
REMARK   58  A    between atoms: _130  and  _133
REMARK   59  A    between atoms: _133  and  _134
REMARK   60  A    between atoms: _137  and  _139
REMARK   61  A    between atoms: _139  and  _140
REMARK   62  A    between atoms: _139  and  _142
REMARK   63  A    between atoms: _142  and  _143
REMARK   64  A    between atoms: _146  and  _148
REMARK   65  A    between atoms: _148  and  _149
REMARK   66  A    between atoms: _148  and  _151
REMARK   67  A    between atoms: _151  and  _152
REMARK   68  A    between atoms: _154  and  _156
REMARK   69  A    between atoms: _156  and  _157
REMARK   70  A    between atoms: _156  and  _159
REMARK   71  A    between atoms: _159  and  _160
REMARK   72  A    between atoms: _164  and  ZN_421
REMARK   73  A    between atoms: _165  and  _167
REMARK   74  A    between atoms: _167  and  _168
REMARK   75  A    between atoms: _170  and  _172
REMARK   76  A    between atoms: _172  and  _173
REMARK   77  A    between atoms: _176  and  _178
REMARK   78  A    between atoms: _178  and  _179
REMARK   79  A    between atoms: _178  and  _181
REMARK   80  A    between atoms: _181  and  _182
REMARK   81  A    between atoms: _188  and  _190
REMARK   82  A    between atoms: _190  and  _191
REMARK   83  A    between atoms: _190  and  _193
REMARK   84  A    between atoms: _193  and  _194
REMARK   85  A    between atoms: _194  and  _195
REMARK   86  A    between atoms: _195  and  _196
REMARK   87  A    between atoms: _196  and  _197
REMARK   88  A    between atoms: _201  and  _203
REMARK   89  A    between atoms: _203  and  _204
REMARK   90  A    between atoms: _203  and  _206
REMARK   91  A    between atoms: _209  and  _211
REMARK   92  A    between atoms: _211  and  _212
REMARK   93  A    between atoms: _211  and  _214
REMARK   94  A    between atoms: _214  and  _215
REMARK   95  A    between atoms: _218  and  _220
REMARK   96  A    between atoms: _220  and  _221
REMARK   97  A    between atoms: _220  and  _223
REMARK   98  A    between atoms: _223  and  _224
REMARK   99  A    between atoms: _225  and  ZN_421
REMARK  100  A    between atoms: _229  and  _231
REMARK  101  A    between atoms: _231  and  _232
REMARK  102  A    between atoms: _234  and  _236
REMARK  103  A    between atoms: _236  and  _237
REMARK  104  A    between atoms: _240  and  _242
REMARK  105  A    between atoms: _242  and  _243
REMARK  106  A    between atoms: _242  and  _245
REMARK  107  A    between atoms: _245  and  _246
REMARK  108  A    between atoms: _248  and  _250
REMARK  109  A    between atoms: _250  and  _251
REMARK  110  A    between atoms: _254  and  _256
REMARK  111  A    between atoms: _256  and  _257
REMARK  112  A    between atoms: _256  and  _259
REMARK  113  A    between atoms: _259  and  _260
REMARK  114  A    between atoms: _263  and  _265
REMARK  115  A    between atoms: _265  and  _266
REMARK  116  A    between atoms: _265  and  _268
REMARK  117  A    between atoms: _268  and  _269
REMARK  118  A    between atoms: _269  and  _270
REMARK  119  A    between atoms: _270  and  _271
REMARK  120  A    between atoms: _271  and  _272
REMARK  121  A    between atoms: _276  and  _278
REMARK  122  A    between atoms: _278  and  _279
REMARK  123  A    between atoms: _281  and  _283
REMARK  124  A    between atoms: _283  and  _284
REMARK  125  A    between atoms: _283  and  _286
REMARK  126  A    between atoms: _289  and  _291
REMARK  127  A    between atoms: _291  and  _292
REMARK  128  A    between atoms: _291  and  _294
REMARK  129  A    between atoms: _294  and  _295
REMARK  130  A    between atoms: _295  and  _296
REMARK  131  A    between atoms: _296  and  _297
REMARK  132  A    between atoms: _297  and  _298
REMARK  133  A    between atoms: _302  and  _304
REMARK  134  A    between atoms: _304  and  _305
REMARK  135  A    between atoms: _304  and  _307
REMARK  136  A    between atoms: _310  and  _312
REMARK  137  A    between atoms: _312  and  _313
REMARK  138  A    between atoms: _312  and  _315
REMARK  139  A    between atoms: _315  and  _316
REMARK  140  A    between atoms: _321  and  _323
REMARK  141  A    between atoms: _323  and  _324
REMARK  142  A    between atoms: _323  and  _326
REMARK  143  A    between atoms: _326  and  _327
REMARK  144  A    between atoms: _330  and  _332
REMARK  145  A    between atoms: _332  and  _333
REMARK  146  A    between atoms: _332  and  _335
REMARK  147  A    between atoms: _335  and  _336
REMARK  148  A    between atoms: _339  and  _341
REMARK  149  A    between atoms: _341  and  _342
REMARK  150  A    between atoms: _341  and  _344
REMARK  151  A    between atoms: _344  and  _345
REMARK  152  A    between atoms: _348  and  _350
REMARK  153  A    between atoms: _350  and  _351
REMARK  154  A    between atoms: _350  and  _353
REMARK  155  A    between atoms: _353  and  _354
REMARK  156  A    between atoms: _357  and  _359
REMARK  157  A    between atoms: _359  and  _360
REMARK  158  A    between atoms: _359  and  _362
REMARK  159  A    between atoms: _362  and  _363
REMARK  160  A    between atoms: _366  and  _368
REMARK  161  A    between atoms: _368  and  _369
REMARK  162  A    between atoms: _368  and  _371
REMARK  163  A    between atoms: _371  and  _372
REMARK  164  A    between atoms: _372  and  _373
REMARK  165  A    between atoms: _373  and  _374
REMARK  166  A    between atoms: _383  and  _385
REMARK  167  A    between atoms: _385  and  _386
REMARK  168  A    between atoms: _385  and  _388
REMARK  169  A    between atoms: _388  and  _389
REMARK  170  A    between atoms: _392  and  _394
REMARK  171  A    between atoms: _394  and  _395
REMARK  172  A    between atoms: _394  and  _397
REMARK  173  A    between atoms: _397  and  _398
REMARK  174  A    between atoms: _398  and  _399
REMARK  175  A    between atoms: _399  and  _400
REMARK  176  A    between atoms: _409  and  _411
REMARK  177  A    between atoms: _411  and  _412
REMARK  178  A    between atoms: _411  and  _414
REMARK  179  A    between atoms: _414  and  _415
REMARK                            x       y       z     vdW  Elec       q    Type
REMARK                         _______ _______ _______ _____ _____    ______ ____
ROOT
ATOM      1  O   HOH     1       7.981   5.000   6.665  0.00  0.00    +0.000 OA
ENDROOT
TORSDOF 0
REMARK  Name = ../refined-set-2016/3c52/3c52_pocket.pdb
REMARK  179 active torsions:
REMARK  status: ('A' for Active; 'I' for Inactive)
REMARK    1  A    between atoms: _1  and  _3
REMARK    2  A    between atoms: _3  and  _4
REMARK    3  A    between atoms: _7  and  _9
REMARK    4  A    between atoms: _9  and  _10
REMARK    5  A    between atoms: _9  and  _12
REMARK    6  A    between atoms: _12  and  _13
REMARK    7  A    between atoms: _19  and  _21
REMARK    8  A    between atoms: _21  and  _22
REMARK    9  A    between atoms: _21  and  _24
REMARK   10  A    between atoms: _24  and  _25
REMARK   11  A    between atoms: _30  and  _32
REMARK   12  A    between atoms: _32  and  _33
REMARK   13  A    between atoms: _32  and  _35
REMARK   14  A    between atoms: _35  and  _36
REMARK   15  A    between atoms: _36  and  _37
REMARK   16  A    between atoms: _42  and  _44
REMARK   17  A    between atoms: _44  and  _45
REMARK   18  A    between atoms: _44  and  _47
REMARK   19  A    between atoms: _47  and  _48
REMARK   20  A    between atoms: _50  and  _52
REMARK   21  A    between atoms: _52  and  _53
REMARK   22  A    between atoms: _52  and  _55
REMARK   23  A    between atoms: _55  and  _56
REMARK   24  A    between atoms: _61  and  _63
REMARK   25  A    between atoms: _63  and  _64
REMARK   26  A    between atoms: _63  and  _66
REMARK   27  A    between atoms: _66  and  _67
REMARK   28  A    between atoms: _70  and  _72
REMARK   29  A    between atoms: _72  and  _73
REMARK   30  A    between atoms: _72  and  _75
REMARK   31  A    between atoms: _75  and  _76
REMARK   32  A    between atoms: _79  and  _81
REMARK   33  A    between atoms: _81  and  _82
REMARK   34  A    between atoms: _81  and  _84
REMARK   35  A    between atoms: _84  and  _85
REMARK   36  A    between atoms: _89  and  ZN_421
REMARK   37  A    between atoms: _90  and  _92
REMARK   38  A    between atoms: _92  and  _93
REMARK   39  A    between atoms: _92  and  _95
REMARK   40  A    between atoms: _95  and  _96
REMARK   41  A    between atoms: _96  and  _97
REMARK   42  A    between atoms: _99  and  _101
REMARK   43  A    between atoms: _101  and  _102
REMARK   44  A    between atoms: _101  and  _104
REMARK   45  A    between atoms: _104  and  _105
REMARK   46  A    between atoms: _108  and  _110
REMARK   47  A    between atoms: _110  and  _111
REMARK   48  A    between atoms: _110  and  _113
REMARK   49  A    between atoms: _113  and  _114
REMARK   50  A    between atoms: _114  and  _115
REMARK   51  A    between atoms: _118  and  _120
REMARK   52  A    between atoms: _120  and  _121
REMARK   53  A    between atoms: _120  and  _123
REMARK   54  A    between atoms: _123  and  _124
REMARK   55  A    between atoms: _124  and  _125
REMARK   56  A    between atoms: _128  and  _130
REMARK   57  A    between atoms: _130  and  _131
REMARK   58  A    between atoms: _130  and  _133
REMARK   59  A    between atoms: _133  and  _134
REMARK   60  A    between atoms: _137  and  _139
REMARK   61  A    between atoms: _139  and  _140
REMARK   62  A    between atoms: _139  and  _142
REMARK   63  A    between atoms: _142  and  _143
REMARK   64  A    between atoms: _146  and  _148
REMARK   65  A    between atoms: _148  and  _149
REMARK   66  A    between atoms: _148  and  _151
REMARK   67  A    between atoms: _151  and  _152
REMARK   68  A    between atoms: _154  and  _156
REMARK   69  A    between atoms: _156  and  _157
REMARK   70  A    between atoms: _156  and  _159
REMARK   71  A    between atoms: _159  and  _160
REMARK   72  A    between atoms: _164  and  ZN_421
REMARK   73  A    between atoms: _165  and  _167
REMARK   74  A    between atoms: _167  and  _168
REMARK   75  A    between atoms: _170  and  _172
REMARK   76  A    between atoms: _172  and  _173
REMARK   77  A    between atoms: _176  and  _178
REMARK   78  A    between atoms: _178  and  _179
REMARK   79  A    between atoms: _178  and  _181
REMARK   80  A    between atoms: _181  and  _182
REMARK   81  A    between atoms: _188  and  _190
REMARK   82  A    between atoms: _190  and  _191
REMARK   83  A    between atoms: _190  and  _193
REMARK   84  A    between atoms: _193  and  _194
REMARK   85  A    between atoms: _194  and  _195
REMARK   86  A    between atoms: _195  and  _196
REMARK   87  A    between atoms: _196  and  _197
REMARK   88  A    between atoms: _201  and  _203
REMARK   89  A    between atoms: _203  and  _204
REMARK   90  A    between atoms: _203  and  _206
REMARK   91  A    between atoms: _209  and  _211
REMARK   92  A    between atoms: _211  and  _212
REMARK   93  A    between atoms: _211  and  _214
REMARK   94  A    between atoms: _214  and  _215
REMARK   95  A    between atoms: _218  and  _220
REMARK   96  A    between atoms: _220  and  _221
REMARK   97  A    between atoms: _220  and  _223
REMARK   98  A    between atoms: _223  and  _224
REMARK   99  A    between atoms: _225  and  ZN_421
REMARK  100  A    between atoms: _229  and  _231
REMARK  101  A    between atoms: _231  and  _232
REMARK  102  A    between atoms: _234  and  _236
REMARK  103  A    between atoms: _236  and  _237
REMARK  104  A    between atoms: _240  and  _242
REMARK  105  A    between atoms: _242  and  _243
REMARK  106  A    between atoms: _242  and  _245
REMARK  107  A    between atoms: _245  and  _246
REMARK  108  A    between atoms: _248  and  _250
REMARK  109  A    between atoms: _250  and  _251
REMARK  110  A    between atoms: _254  and  _256
REMARK  111  A    between atoms: _256  and  _257
REMARK  112  A    between atoms: _256  and  _259
REMARK  113  A    between atoms: _259  and  _260
REMARK  114  A    between atoms: _263  and  _265
REMARK  115  A    between atoms: _265  and  _266
REMARK  116  A    between atoms: _265  and  _268
REMARK  117  A    between atoms: _268  and  _269
REMARK  118  A    between atoms: _269  and  _270
REMARK  119  A    between atoms: _270  and  _271
REMARK  120  A    between atoms: _271  and  _272
REMARK  121  A    between atoms: _276  and  _278
REMARK  122  A    between atoms: _278  and  _279
REMARK  123  A    between atoms: _281  and  _283
REMARK  124  A    between atoms: _283  and  _284
REMARK  125  A    between atoms: _283  and  _286
REMARK  126  A    between atoms: _289  and  _291
REMARK  127  A    between atoms: _291  and  _292
REMARK  128  A    between atoms: _291  and  _294
REMARK  129  A    between atoms: _294  and  _295
REMARK  130  A    between atoms: _295  and  _296
REMARK  131  A    between atoms: _296  and  _297
REMARK  132  A    between atoms: _297  and  _298
REMARK  133  A    between atoms: _302  and  _304
REMARK  134  A    between atoms: _304  and  _305
REMARK  135  A    between atoms: _304  and  _307
REMARK  136  A    between atoms: _310  and  _312
REMARK  137  A    between atoms: _312  and  _313
REMARK  138  A    between atoms: _312  and  _315
REMARK  139  A    between atoms: _315  and  _316
REMARK  140  A    between atoms: _321  and  _323
REMARK  141  A    between atoms: _323  and  _324
REMARK  142  A    between atoms: _323  and  _326
REMARK  143  A    between atoms: _326  and  _327
REMARK  144  A    between atoms: _330  and  _332
REMARK  145  A    between atoms: _332  and  _333
REMARK  146  A    between atoms: _332  and  _335
REMARK  147  A    between atoms: _335  and  _336
REMARK  148  A    between atoms: _339  and  _341
REMARK  149  A    between atoms: _341  and  _342
REMARK  150  A    between atoms: _341  and  _344
REMARK  151  A    between atoms: _344  and  _345
REMARK  152  A    between atoms: _348  and  _350
REMARK  153  A    between atoms: _350  and  _351
REMARK  154  A    between atoms: _350  and  _353
REMARK  155  A    between atoms: _353  and  _354
REMARK  156  A    between atoms: _357  and  _359
REMARK  157  A    between atoms: _359  and  _360
REMARK  158  A    between atoms: _359  and  _362
REMARK  159  A    between atoms: _362  and  _363
REMARK  160  A    between atoms: _366  and  _368
REMARK  161  A    between atoms: _368  and  _369
REMARK  162  A    between atoms: _368  and  _371
REMARK  163  A    between atoms: _371  and  _372
REMARK  164  A    between atoms: _372  and  _373
REMARK  165  A    between atoms: _373  and  _374
REMARK  166  A    between atoms: _383  and  _385
REMARK  167  A    between atoms: _385  and  _386
REMARK  168  A    between atoms: _385  and  _388
REMARK  169  A    between atoms: _388  and  _389
REMARK  170  A    between atoms: _392  and  _394
REMARK  171  A    between atoms: _394  and  _395
REMARK  172  A    between atoms: _394  and  _397
REMARK  173  A    between atoms: _397  and  _398
REMARK  174  A    between atoms: _398  and  _399
REMARK  175  A    between atoms: _399  and  _400
REMARK  176  A    between atoms: _409  and  _411
REMARK  177  A    between atoms: _411  and  _412
REMARK  178  A    between atoms: _411  and  _414
REMARK  179  A    between atoms: _414  and  _415
REMARK                            x       y       z     vdW  Elec       q    Type
REMARK                         _______ _______ _______ _____ _____    ______ ____
ROOT
ATOM      1  O   HOH     1       5.258  -1.257  12.973  0.00  0.00    +0.000 OA
ENDROOT
TORSDOF 0
REMARK  Name = ../refined-set-2016/3c52/3c52_pocket.pdb
REMARK  179 active torsions:
REMARK  status: ('A' for Active; 'I' for Inactive)
REMARK    1  A    between atoms: _1  and  _3
REMARK    2  A    between atoms: _3  and  _4
REMARK    3  A    between atoms: _7  and  _9
REMARK    4  A    between atoms: _9  and  _10
REMARK    5  A    between atoms: _9  and  _12
REMARK    6  A    between atoms: _12  and  _13
REMARK    7  A    between atoms: _19  and  _21
REMARK    8  A    between atoms: _21  and  _22
REMARK    9  A    between atoms: _21  and  _24
REMARK   10  A    between atoms: _24  and  _25
REMARK   11  A    between atoms: _30  and  _32
REMARK   12  A    between atoms: _32  and  _33
REMARK   13  A    between atoms: _32  and  _35
REMARK   14  A    between atoms: _35  and  _36
REMARK   15  A    between atoms: _36  and  _37
REMARK   16  A    between atoms: _42  and  _44
REMARK   17  A    between atoms: _44  and  _45
REMARK   18  A    between atoms: _44  and  _47
REMARK   19  A    between atoms: _47  and  _48
REMARK   20  A    between atoms: _50  and  _52
REMARK   21  A    between atoms: _52  and  _53
REMARK   22  A    between atoms: _52  and  _55
REMARK   23  A    between atoms: _55  and  _56
REMARK   24  A    between atoms: _61  and  _63
REMARK   25  A    between atoms: _63  and  _64
REMARK   26  A    between atoms: _63  and  _66
REMARK   27  A    between atoms: _66  and  _67
REMARK   28  A    between atoms: _70  and  _72
REMARK   29  A    between atoms: _72  and  _73
REMARK   30  A    between atoms: _72  and  _75
REMARK   31  A    between atoms: _75  and  _76
REMARK   32  A    between atoms: _79  and  _81
REMARK   33  A    between atoms: _81  and  _82
REMARK   34  A    between atoms: _81  and  _84
REMARK   35  A    between atoms: _84  and  _85
REMARK   36  A    between atoms: _89  and  ZN_421
REMARK   37  A    between atoms: _90  and  _92
REMARK   38  A    between atoms: _92  and  _93
REMARK   39  A    between atoms: _92  and  _95
REMARK   40  A    between atoms: _95  and  _96
REMARK   41  A    between atoms: _96  and  _97
REMARK   42  A    between atoms: _99  and  _101
REMARK   43  A    between atoms: _101  and  _102
REMARK   44  A    between atoms: _101  and  _104
REMARK   45  A    between atoms: _104  and  _105
REMARK   46  A    between atoms: _108  and  _110
REMARK   47  A    between atoms: _110  and  _111
REMARK   48  A    between atoms: _110  and  _113
REMARK   49  A    between atoms: _113  and  _114
REMARK   50  A    between atoms: _114  and  _115
REMARK   51  A    between atoms: _118  and  _120
REMARK   52  A    between atoms: _120  and  _121
REMARK   53  A    between atoms: _120  and  _123
REMARK   54  A    between atoms: _123  and  _124
REMARK   55  A    between atoms: _124  and  _125
REMARK   56  A    between atoms: _128  and  _130
REMARK   57  A    between atoms: _130  and  _131
REMARK   58  A    between atoms: _130  and  _133
REMARK   59  A    between atoms: _133  and  _134
REMARK   60  A    between atoms: _137  and  _139
REMARK   61  A    between atoms: _139  and  _140
REMARK   62  A    between atoms: _139  and  _142
REMARK   63  A    between atoms: _142  and  _143
REMARK   64  A    between atoms: _146  and  _148
REMARK   65  A    between atoms: _148  and  _149
REMARK   66  A    between atoms: _148  and  _151
REMARK   67  A    between atoms: _151  and  _152
REMARK   68  A    between atoms: _154  and  _156
REMARK   69  A    between atoms: _156  and  _157
REMARK   70  A    between atoms: _156  and  _159
REMARK   71  A    between atoms: _159  and  _160
REMARK   72  A    between atoms: _164  and  ZN_421
REMARK   73  A    between atoms: _165  and  _167
REMARK   74  A    between atoms: _167  and  _168
REMARK   75  A    between atoms: _170  and  _172
REMARK   76  A    between atoms: _172  and  _173
REMARK   77  A    between atoms: _176  and  _178
REMARK   78  A    between atoms: _178  and  _179
REMARK   79  A    between atoms: _178  and  _181
REMARK   80  A    between atoms: _181  and  _182
REMARK   81  A    between atoms: _188  and  _190
REMARK   82  A    between atoms: _190  and  _191
REMARK   83  A    between atoms: _190  and  _193
REMARK   84  A    between atoms: _193  and  _194
REMARK   85  A    between atoms: _194  and  _195
REMARK   86  A    between atoms: _195  and  _196
REMARK   87  A    between atoms: _196  and  _197
REMARK   88  A    between atoms: _201  and  _203
REMARK   89  A    between atoms: _203  and  _204
REMARK   90  A    between atoms: _203  and  _206
REMARK   91  A    between atoms: _209  and  _211
REMARK   92  A    between atoms: _211  and  _212
REMARK   93  A    between atoms: _211  and  _214
REMARK   94  A    between atoms: _214  and  _215
REMARK   95  A    between atoms: _218  and  _220
REMARK   96  A    between atoms: _220  and  _221
REMARK   97  A    between atoms: _220  and  _223
REMARK   98  A    between atoms: _223  and  _224
REMARK   99  A    between atoms: _225  and  ZN_421
REMARK  100  A    between atoms: _229  and  _231
REMARK  101  A    between atoms: _231  and  _232
REMARK  102  A    between atoms: _234  and  _236
REMARK  103  A    between atoms: _236  and  _237
REMARK  104  A    between atoms: _240  and  _242
REMARK  105  A    between atoms: _242  and  _243
REMARK  106  A    between atoms: _242  and  _245
REMARK  107  A    between atoms: _245  and  _246
REMARK  108  A    between atoms: _248  and  _250
REMARK  109  A    between atoms: _250  and  _251
REMARK  110  A    between atoms: _254  and  _256
REMARK  111  A    between atoms: _256  and  _257
REMARK  112  A    between atoms: _256  and  _259
REMARK  113  A    between atoms: _259  and  _260
REMARK  114  A    between atoms: _263  and  _265
REMARK  115  A    between atoms: _265  and  _266
REMARK  116  A    between atoms: _265  and  _268
REMARK  117  A    between atoms: _268  and  _269
REMARK  118  A    between atoms: _269  and  _270
REMARK  119  A    between atoms: _270  and  _271
REMARK  120  A    between atoms: _271  and  _272
REMARK  121  A    between atoms: _276  and  _278
REMARK  122  A    between atoms: _278  and  _279
REMARK  123  A    between atoms: _281  and  _283
REMARK  124  A    between atoms: _283  and  _284
REMARK  125  A    between atoms: _283  and  _286
REMARK  126  A    between atoms: _289  and  _291
REMARK  127  A    between atoms: _291  and  _292
REMARK  128  A    between atoms: _291  and  _294
REMARK  129  A    between atoms: _294  and  _295
REMARK  130  A    between atoms: _295  and  _296
REMARK  131  A    between atoms: _296  and  _297
REMARK  132  A    between atoms: _297  and  _298
REMARK  133  A    between atoms: _302  and  _304
REMARK  134  A    between atoms: _304  and  _305
REMARK  135  A    between atoms: _304  and  _307
REMARK  136  A    between atoms: _310  and  _312
REMARK  137  A    between atoms: _312  and  _313
REMARK  138  A    between atoms: _312  and  _315
REMARK  139  A    between atoms: _315  and  _316
REMARK  140  A    between atoms: _321  and  _323
REMARK  141  A    between atoms: _323  and  _324
REMARK  142  A    between atoms: _323  and  _326
REMARK  143  A    between atoms: _326  and  _327
REMARK  144  A    between atoms: _330  and  _332
REMARK  145  A    between atoms: _332  and  _333
REMARK  146  A    between atoms: _332  and  _335
REMARK  147  A    between atoms: _335  and  _336
REMARK  148  A    between atoms: _339  and  _341
REMARK  149  A    between atoms: _341  and  _342
REMARK  150  A    between atoms: _341  and  _344
REMARK  151  A    between atoms: _344  and  _345
REMARK  152  A    between atoms: _348  and  _350
REMARK  153  A    between atoms: _350  and  _351
REMARK  154  A    between atoms: _350  and  _353
REMARK  155  A    between atoms: _353  and  _354
REMARK  156  A    between atoms: _357  and  _359
REMARK  157  A    between atoms: _359  and  _360
REMARK  158  A    between atoms: _359  and  _362
REMARK  159  A    between atoms: _362  and  _363
REMARK  160  A    between atoms: _366  and  _368
REMARK  161  A    between atoms: _368  and  _369
REMARK  162  A    between atoms: _368  and  _371
REMARK  163  A    between atoms: _371  and  _372
REMARK  164  A    between atoms: _372  and  _373
REMARK  165  A    between atoms: _373  and  _374
REMARK  166  A    between atoms: _383  and  _385
REMARK  167  A    between atoms: _385  and  _386
REMARK  168  A    between atoms: _385  and  _388
REMARK  169  A    between atoms: _388  and  _389
REMARK  170  A    between atoms: _392  and  _394
REMARK  171  A    between atoms: _394  and  _395
REMARK  172  A    between atoms: _394  and  _397
REMARK  173  A    between atoms: _397  and  _398
REMARK  174  A    between atoms: _398  and  _399
REMARK  175  A    between atoms: _399  and  _400
REMARK  176  A    between atoms: _409  and  _411
REMARK  177  A    between atoms: _411  and  _412
REMARK  178  A    between atoms: _411  and  _414
REMARK  179  A    between atoms: _414  and  _415
REMARK                            x       y       z     vdW  Elec       q    Type
REMARK                         _______ _______ _______ _____ _____    ______ ____
ROOT
ATOM      1  O   HOH     1      10.928  -2.144   8.293  0.00  0.00    +0.000 OA
ENDROOT
TORSDOF 0
REMARK  Name = ../refined-set-2016/3c52/3c52_pocket.pdb
REMARK  179 active torsions:
REMARK  status: ('A' for Active; 'I' for Inactive)
REMARK    1  A    between atoms: _1  and  _3
REMARK    2  A    between atoms: _3  and  _4
REMARK    3  A    between atoms: _7  and  _9
REMARK    4  A    between atoms: _9  and  _10
REMARK    5  A    between atoms: _9  and  _12
REMARK    6  A    between atoms: _12  and  _13
REMARK    7  A    between atoms: _19  and  _21
REMARK    8  A    between atoms: _21  and  _22
REMARK    9  A    between atoms: _21  and  _24
REMARK   10  A    between atoms: _24  and  _25
REMARK   11  A    between atoms: _30  and  _32
REMARK   12  A    between atoms: _32  and  _33
REMARK   13  A    between atoms: _32  and  _35
REMARK   14  A    between atoms: _35  and  _36
REMARK   15  A    between atoms: _36  and  _37
REMARK   16  A    between atoms: _42  and  _44
REMARK   17  A    between atoms: _44  and  _45
REMARK   18  A    between atoms: _44  and  _47
REMARK   19  A    between atoms: _47  and  _48
REMARK   20  A    between atoms: _50  and  _52
REMARK   21  A    between atoms: _52  and  _53
REMARK   22  A    between atoms: _52  and  _55
REMARK   23  A    between atoms: _55  and  _56
REMARK   24  A    between atoms: _61  and  _63
REMARK   25  A    between atoms: _63  and  _64
REMARK   26  A    between atoms: _63  and  _66
REMARK   27  A    between atoms: _66  and  _67
REMARK   28  A    between atoms: _70  and  _72
REMARK   29  A    between atoms: _72  and  _73
REMARK   30  A    between atoms: _72  and  _75
REMARK   31  A    between atoms: _75  and  _76
REMARK   32  A    between atoms: _79  and  _81
REMARK   33  A    between atoms: _81  and  _82
REMARK   34  A    between atoms: _81  and  _84
REMARK   35  A    between atoms: _84  and  _85
REMARK   36  A    between atoms: _89  and  ZN_421
REMARK   37  A    between atoms: _90  and  _92
REMARK   38  A    between atoms: _92  and  _93
REMARK   39  A    between atoms: _92  and  _95
REMARK   40  A    between atoms: _95  and  _96
REMARK   41  A    between atoms: _96  and  _97
REMARK   42  A    between atoms: _99  and  _101
REMARK   43  A    between atoms: _101  and  _102
REMARK   44  A    between atoms: _101  and  _104
REMARK   45  A    between atoms: _104  and  _105
REMARK   46  A    between atoms: _108  and  _110
REMARK   47  A    between atoms: _110  and  _111
REMARK   48  A    between atoms: _110  and  _113
REMARK   49  A    between atoms: _113  and  _114
REMARK   50  A    between atoms: _114  and  _115
REMARK   51  A    between atoms: _118  and  _120
REMARK   52  A    between atoms: _120  and  _121
REMARK   53  A    between atoms: _120  and  _123
REMARK   54  A    between atoms: _123  and  _124
REMARK   55  A    between atoms: _124  and  _125
REMARK   56  A    between atoms: _128  and  _130
REMARK   57  A    between atoms: _130  and  _131
REMARK   58  A    between atoms: _130  and  _133
REMARK   59  A    between atoms: _133  and  _134
REMARK   60  A    between atoms: _137  and  _139
REMARK   61  A    between atoms: _139  and  _140
REMARK   62  A    between atoms: _139  and  _142
REMARK   63  A    between atoms: _142  and  _143
REMARK   64  A    between atoms: _146  and  _148
REMARK   65  A    between atoms: _148  and  _149
REMARK   66  A    between atoms: _148  and  _151
REMARK   67  A    between atoms: _151  and  _152
REMARK   68  A    between atoms: _154  and  _156
REMARK   69  A    between atoms: _156  and  _157
REMARK   70  A    between atoms: _156  and  _159
REMARK   71  A    between atoms: _159  and  _160
REMARK   72  A    between atoms: _164  and  ZN_421
REMARK   73  A    between atoms: _165  and  _167
REMARK   74  A    between atoms: _167  and  _168
REMARK   75  A    between atoms: _170  and  _172
REMARK   76  A    between atoms: _172  and  _173
REMARK   77  A    between atoms: _176  and  _178
REMARK   78  A    between atoms: _178  and  _179
REMARK   79  A    between atoms: _178  and  _181
REMARK   80  A    between atoms: _181  and  _182
REMARK   81  A    between atoms: _188  and  _190
REMARK   82  A    between atoms: _190  and  _191
REMARK   83  A    between atoms: _190  and  _193
REMARK   84  A    between atoms: _193  and  _194
REMARK   85  A    between atoms: _194  and  _195
REMARK   86  A    between atoms: _195  and  _196
REMARK   87  A    between atoms: _196  and  _197
REMARK   88  A    between atoms: _201  and  _203
REMARK   89  A    between atoms: _203  and  _204
REMARK   90  A    between atoms: _203  and  _206
REMARK   91  A    between atoms: _209  and  _211
REMARK   92  A    between atoms: _211  and  _212
REMARK   93  A    between atoms: _211  and  _214
REMARK   94  A    between atoms: _214  and  _215
REMARK   95  A    between atoms: _218  and  _220
REMARK   96  A    between atoms: _220  and  _221
REMARK   97  A    between atoms: _220  and  _223
REMARK   98  A    between atoms: _223  and  _224
REMARK   99  A    between atoms: _225  and  ZN_421
REMARK  100  A    between atoms: _229  and  _231
REMARK  101  A    between atoms: _231  and  _232
REMARK  102  A    between atoms: _234  and  _236
REMARK  103  A    between atoms: _236  and  _237
REMARK  104  A    between atoms: _240  and  _242
REMARK  105  A    between atoms: _242  and  _243
REMARK  106  A    between atoms: _242  and  _245
REMARK  107  A    between atoms: _245  and  _246
REMARK  108  A    between atoms: _248  and  _250
REMARK  109  A    between atoms: _250  and  _251
REMARK  110  A    between atoms: _254  and  _256
REMARK  111  A    between atoms: _256  and  _257
REMARK  112  A    between atoms: _256  and  _259
REMARK  113  A    between atoms: _259  and  _260
REMARK  114  A    between atoms: _263  and  _265
REMARK  115  A    between atoms: _265  and  _266
REMARK  116  A    between atoms: _265  and  _268
REMARK  117  A    between atoms: _268  and  _269
REMARK  118  A    between atoms: _269  and  _270
REMARK  119  A    between atoms: _270  and  _271
REMARK  120  A    between atoms: _271  and  _272
REMARK  121  A    between atoms: _276  and  _278
REMARK  122  A    between atoms: _278  and  _279
REMARK  123  A    between atoms: _281  and  _283
REMARK  124  A    between atoms: _283  and  _284
REMARK  125  A    between atoms: _283  and  _286
REMARK  126  A    between atoms: _289  and  _291
REMARK  127  A    between atoms: _291  and  _292
REMARK  128  A    between atoms: _291  and  _294
REMARK  129  A    between atoms: _294  and  _295
REMARK  130  A    between atoms: _295  and  _296
REMARK  131  A    between atoms: _296  and  _297
REMARK  132  A    between atoms: _297  and  _298
REMARK  133  A    between atoms: _302  and  _304
REMARK  134  A    between atoms: _304  and  _305
REMARK  135  A    between atoms: _304  and  _307
REMARK  136  A    between atoms: _310  and  _312
REMARK  137  A    between atoms: _312  and  _313
REMARK  138  A    between atoms: _312  and  _315
REMARK  139  A    between atoms: _315  and  _316
REMARK  140  A    between atoms: _321  and  _323
REMARK  141  A    between atoms: _323  and  _324
REMARK  142  A    between atoms: _323  and  _326
REMARK  143  A    between atoms: _326  and  _327
REMARK  144  A    between atoms: _330  and  _332
REMARK  145  A    between atoms: _332  and  _333
REMARK  146  A    between atoms: _332  and  _335
REMARK  147  A    between atoms: _335  and  _336
REMARK  148  A    between atoms: _339  and  _341
REMARK  149  A    between atoms: _341  and  _342
REMARK  150  A    between atoms: _341  and  _344
REMARK  151  A    between atoms: _344  and  _345
REMARK  152  A    between atoms: _348  and  _350
REMARK  153  A    between atoms: _350  and  _351
REMARK  154  A    between atoms: _350  and  _353
REMARK  155  A    between atoms: _353  and  _354
REMARK  156  A    between atoms: _357  and  _359
REMARK  157  A    between atoms: _359  and  _360
REMARK  158  A    between atoms: _359  and  _362
REMARK  159  A    between atoms: _362  and  _363
REMARK  160  A    between atoms: _366  and  _368
REMARK  161  A    between atoms: _368  and  _369
REMARK  162  A    between atoms: _368  and  _371
REMARK  163  A    between atoms: _371  and  _372
REMARK  164  A    between atoms: _372  and  _373
REMARK  165  A    between atoms: _373  and  _374
REMARK  166  A    between atoms: _383  and  _385
REMARK  167  A    between atoms: _385  and  _386
REMARK  168  A    between atoms: _385  and  _388
REMARK  169  A    between atoms: _388  and  _389
REMARK  170  A    between atoms: _392  and  _394
REMARK  171  A    between atoms: _394  and  _395
REMARK  172  A    between atoms: _394  and  _397
REMARK  173  A    between atoms: _397  and  _398
REMARK  174  A    between atoms: _398  and  _399
REMARK  175  A    between atoms: _399  and  _400
REMARK  176  A    between atoms: _409  and  _411
REMARK  177  A    between atoms: _411  and  _412
REMARK  178  A    between atoms: _411  and  _414
REMARK  179  A    between atoms: _414  and  _415
REMARK                            x       y       z     vdW  Elec       q    Type
REMARK                         _______ _______ _______ _____ _____    ______ ____
ROOT
ATOM      1  O   HOH     1       4.371   4.848   7.246  0.00  0.00    +0.000 OA
ENDROOT
TORSDOF 0
REMARK  Name = ../refined-set-2016/3c52/3c52_pocket.pdb
REMARK  179 active torsions:
REMARK  status: ('A' for Active; 'I' for Inactive)
REMARK    1  A    between atoms: _1  and  _3
REMARK    2  A    between atoms: _3  and  _4
REMARK    3  A    between atoms: _7  and  _9
REMARK    4  A    between atoms: _9  and  _10
REMARK    5  A    between atoms: _9  and  _12
REMARK    6  A    between atoms: _12  and  _13
REMARK    7  A    between atoms: _19  and  _21
REMARK    8  A    between atoms: _21  and  _22
REMARK    9  A    between atoms: _21  and  _24
REMARK   10  A    between atoms: _24  and  _25
REMARK   11  A    between atoms: _30  and  _32
REMARK   12  A    between atoms: _32  and  _33
REMARK   13  A    between atoms: _32  and  _35
REMARK   14  A    between atoms: _35  and  _36
REMARK   15  A    between atoms: _36  and  _37
REMARK   16  A    between atoms: _42  and  _44
REMARK   17  A    between atoms: _44  and  _45
REMARK   18  A    between atoms: _44  and  _47
REMARK   19  A    between atoms: _47  and  _48
REMARK   20  A    between atoms: _50  and  _52
REMARK   21  A    between atoms: _52  and  _53
REMARK   22  A    between atoms: _52  and  _55
REMARK   23  A    between atoms: _55  and  _56
REMARK   24  A    between atoms: _61  and  _63
REMARK   25  A    between atoms: _63  and  _64
REMARK   26  A    between atoms: _63  and  _66
REMARK   27  A    between atoms: _66  and  _67
REMARK   28  A    between atoms: _70  and  _72
REMARK   29  A    between atoms: _72  and  _73
REMARK   30  A    between atoms: _72  and  _75
REMARK   31  A    between atoms: _75  and  _76
REMARK   32  A    between atoms: _79  and  _81
REMARK   33  A    between atoms: _81  and  _82
REMARK   34  A    between atoms: _81  and  _84
REMARK   35  A    between atoms: _84  and  _85
REMARK   36  A    between atoms: _89  and  ZN_421
REMARK   37  A    between atoms: _90  and  _92
REMARK   38  A    between atoms: _92  and  _93
REMARK   39  A    between atoms: _92  and  _95
REMARK   40  A    between atoms: _95  and  _96
REMARK   41  A    between atoms: _96  and  _97
REMARK   42  A    between atoms: _99  and  _101
REMARK   43  A    between atoms: _101  and  _102
REMARK   44  A    between atoms: _101  and  _104
REMARK   45  A    between atoms: _104  and  _105
REMARK   46  A    between atoms: _108  and  _110
REMARK   47  A    between atoms: _110  and  _111
REMARK   48  A    between atoms: _110  and  _113
REMARK   49  A    between atoms: _113  and  _114
REMARK   50  A    between atoms: _114  and  _115
REMARK   51  A    between atoms: _118  and  _120
REMARK   52  A    between atoms: _120  and  _121
REMARK   53  A    between atoms: _120  and  _123
REMARK   54  A    between atoms: _123  and  _124
REMARK   55  A    between atoms: _124  and  _125
REMARK   56  A    between atoms: _128  and  _130
REMARK   57  A    between atoms: _130  and  _131
REMARK   58  A    between atoms: _130  and  _133
REMARK   59  A    between atoms: _133  and  _134
REMARK   60  A    between atoms: _137  and  _139
REMARK   61  A    between atoms: _139  and  _140
REMARK   62  A    between atoms: _139  and  _142
REMARK   63  A    between atoms: _142  and  _143
REMARK   64  A    between atoms: _146  and  _148
REMARK   65  A    between atoms: _148  and  _149
REMARK   66  A    between atoms: _148  and  _151
REMARK   67  A    between atoms: _151  and  _152
REMARK   68  A    between atoms: _154  and  _156
REMARK   69  A    between atoms: _156  and  _157
REMARK   70  A    between atoms: _156  and  _159
REMARK   71  A    between atoms: _159  and  _160
REMARK   72  A    between atoms: _164  and  ZN_421
REMARK   73  A    between atoms: _165  and  _167
REMARK   74  A    between atoms: _167  and  _168
REMARK   75  A    between atoms: _170  and  _172
REMARK   76  A    between atoms: _172  and  _173
REMARK   77  A    between atoms: _176  and  _178
REMARK   78  A    between atoms: _178  and  _179
REMARK   79  A    between atoms: _178  and  _181
REMARK   80  A    between atoms: _181  and  _182
REMARK   81  A    between atoms: _188  and  _190
REMARK   82  A    between atoms: _190  and  _191
REMARK   83  A    between atoms: _190  and  _193
REMARK   84  A    between atoms: _193  and  _194
REMARK   85  A    between atoms: _194  and  _195
REMARK   86  A    between atoms: _195  and  _196
REMARK   87  A    between atoms: _196  and  _197
REMARK   88  A    between atoms: _201  and  _203
REMARK   89  A    between atoms: _203  and  _204
REMARK   90  A    between atoms: _203  and  _206
REMARK   91  A    between atoms: _209  and  _211
REMARK   92  A    between atoms: _211  and  _212
REMARK   93  A    between atoms: _211  and  _214
REMARK   94  A    between atoms: _214  and  _215
REMARK   95  A    between atoms: _218  and  _220
REMARK   96  A    between atoms: _220  and  _221
REMARK   97  A    between atoms: _220  and  _223
REMARK   98  A    between atoms: _223  and  _224
REMARK   99  A    between atoms: _225  and  ZN_421
REMARK  100  A    between atoms: _229  and  _231
REMARK  101  A    between atoms: _231  and  _232
REMARK  102  A    between atoms: _234  and  _236
REMARK  103  A    between atoms: _236  and  _237
REMARK  104  A    between atoms: _240  and  _242
REMARK  105  A    between atoms: _242  and  _243
REMARK  106  A    between atoms: _242  and  _245
REMARK  107  A    between atoms: _245  and  _246
REMARK  108  A    between atoms: _248  and  _250
REMARK  109  A    between atoms: _250  and  _251
REMARK  110  A    between atoms: _254  and  _256
REMARK  111  A    between atoms: _256  and  _257
REMARK  112  A    between atoms: _256  and  _259
REMARK  113  A    between atoms: _259  and  _260
REMARK  114  A    between atoms: _263  and  _265
REMARK  115  A    between atoms: _265  and  _266
REMARK  116  A    between atoms: _265  and  _268
REMARK  117  A    between atoms: _268  and  _269
REMARK  118  A    between atoms: _269  and  _270
REMARK  119  A    between atoms: _270  and  _271
REMARK  120  A    between atoms: _271  and  _272
REMARK  121  A    between atoms: _276  and  _278
REMARK  122  A    between atoms: _278  and  _279
REMARK  123  A    between atoms: _281  and  _283
REMARK  124  A    between atoms: _283  and  _284
REMARK  125  A    between atoms: _283  and  _286
REMARK  126  A    between atoms: _289  and  _291
REMARK  127  A    between atoms: _291  and  _292
REMARK  128  A    between atoms: _291  and  _294
REMARK  129  A    between atoms: _294  and  _295
REMARK  130  A    between atoms: _295  and  _296
REMARK  131  A    between atoms: _296  and  _297
REMARK  132  A    between atoms: _297  and  _298
REMARK  133  A    between atoms: _302  and  _304
REMARK  134  A    between atoms: _304  and  _305
REMARK  135  A    between atoms: _304  and  _307
REMARK  136  A    between atoms: _310  and  _312
REMARK  137  A    between atoms: _312  and  _313
REMARK  138  A    between atoms: _312  and  _315
REMARK  139  A    between atoms: _315  and  _316
REMARK  140  A    between atoms: _321  and  _323
REMARK  141  A    between atoms: _323  and  _324
REMARK  142  A    between atoms: _323  and  _326
REMARK  143  A    between atoms: _326  and  _327
REMARK  144  A    between atoms: _330  and  _332
REMARK  145  A    between atoms: _332  and  _333
REMARK  146  A    between atoms: _332  and  _335
REMARK  147  A    between atoms: _335  and  _336
REMARK  148  A    between atoms: _339  and  _341
REMARK  149  A    between atoms: _341  and  _342
REMARK  150  A    between atoms: _341  and  _344
REMARK  151  A    between atoms: _344  and  _345
REMARK  152  A    between atoms: _348  and  _350
REMARK  153  A    between atoms: _350  and  _351
REMARK  154  A    between atoms: _350  and  _353
REMARK  155  A    between atoms: _353  and  _354
REMARK  156  A    between atoms: _357  and  _359
REMARK  157  A    between atoms: _359  and  _360
REMARK  158  A    between atoms: _359  and  _362
REMARK  159  A    between atoms: _362  and  _363
REMARK  160  A    between atoms: _366  and  _368
REMARK  161  A    between atoms: _368  and  _369
REMARK  162  A    between atoms: _368  and  _371
REMARK  163  A    between atoms: _371  and  _372
REMARK  164  A    between atoms: _372  and  _373
REMARK  165  A    between atoms: _373  and  _374
REMARK  166  A    between atoms: _383  and  _385
REMARK  167  A    between atoms: _385  and  _386
REMARK  168  A    between atoms: _385  and  _388
REMARK  169  A    between atoms: _388  and  _389
REMARK  170  A    between atoms: _392  and  _394
REMARK  171  A    between atoms: _394  and  _395
REMARK  172  A    between atoms: _394  and  _397
REMARK  173  A    between atoms: _397  and  _398
REMARK  174  A    between atoms: _398  and  _399
REMARK  175  A    between atoms: _399  and  _400
REMARK  176  A    between atoms: _409  and  _411
REMARK  177  A    between atoms: _411  and  _412
REMARK  178  A    between atoms: _411  and  _414
REMARK  179  A    between atoms: _414  and  _415
REMARK                            x       y       z     vdW  Elec       q    Type
REMARK                         _______ _______ _______ _____ _____    ______ ____
ROOT
ATOM      1  O   HOH     1      -5.929   3.036   5.086  0.00  0.00    +0.000 OA
ENDROOT
TORSDOF 0
REMARK  Name = ../refined-set-2016/3c52/3c52_pocket.pdb
REMARK  179 active torsions:
REMARK  status: ('A' for Active; 'I' for Inactive)
REMARK    1  A    between atoms: _1  and  _3
REMARK    2  A    between atoms: _3  and  _4
REMARK    3  A    between atoms: _7  and  _9
REMARK    4  A    between atoms: _9  and  _10
REMARK    5  A    between atoms: _9  and  _12
REMARK    6  A    between atoms: _12  and  _13
REMARK    7  A    between atoms: _19  and  _21
REMARK    8  A    between atoms: _21  and  _22
REMARK    9  A    between atoms: _21  and  _24
REMARK   10  A    between atoms: _24  and  _25
REMARK   11  A    between atoms: _30  and  _32
REMARK   12  A    between atoms: _32  and  _33
REMARK   13  A    between atoms: _32  and  _35
REMARK   14  A    between atoms: _35  and  _36
REMARK   15  A    between atoms: _36  and  _37
REMARK   16  A    between atoms: _42  and  _44
REMARK   17  A    between atoms: _44  and  _45
REMARK   18  A    between atoms: _44  and  _47
REMARK   19  A    between atoms: _47  and  _48
REMARK   20  A    between atoms: _50  and  _52
REMARK   21  A    between atoms: _52  and  _53
REMARK   22  A    between atoms: _52  and  _55
REMARK   23  A    between atoms: _55  and  _56
REMARK   24  A    between atoms: _61  and  _63
REMARK   25  A    between atoms: _63  and  _64
REMARK   26  A    between atoms: _63  and  _66
REMARK   27  A    between atoms: _66  and  _67
REMARK   28  A    between atoms: _70  and  _72
REMARK   29  A    between atoms: _72  and  _73
REMARK   30  A    between atoms: _72  and  _75
REMARK   31  A    between atoms: _75  and  _76
REMARK   32  A    between atoms: _79  and  _81
REMARK   33  A    between atoms: _81  and  _82
REMARK   34  A    between atoms: _81  and  _84
REMARK   35  A    between atoms: _84  and  _85
REMARK   36  A    between atoms: _89  and  ZN_421
REMARK   37  A    between atoms: _90  and  _92
REMARK   38  A    between atoms: _92  and  _93
REMARK   39  A    between atoms: _92  and  _95
REMARK   40  A    between atoms: _95  and  _96
REMARK   41  A    between atoms: _96  and  _97
REMARK   42  A    between atoms: _99  and  _101
REMARK   43  A    between atoms: _101  and  _102
REMARK   44  A    between atoms: _101  and  _104
REMARK   45  A    between atoms: _104  and  _105
REMARK   46  A    between atoms: _108  and  _110
REMARK   47  A    between atoms: _110  and  _111
REMARK   48  A    between atoms: _110  and  _113
REMARK   49  A    between atoms: _113  and  _114
REMARK   50  A    between atoms: _114  and  _115
REMARK   51  A    between atoms: _118  and  _120
REMARK   52  A    between atoms: _120  and  _121
REMARK   53  A    between atoms: _120  and  _123
REMARK   54  A    between atoms: _123  and  _124
REMARK   55  A    between atoms: _124  and  _125
REMARK   56  A    between atoms: _128  and  _130
REMARK   57  A    between atoms: _130  and  _131
REMARK   58  A    between atoms: _130  and  _133
REMARK   59  A    between atoms: _133  and  _134
REMARK   60  A    between atoms: _137  and  _139
REMARK   61  A    between atoms: _139  and  _140
REMARK   62  A    between atoms: _139  and  _142
REMARK   63  A    between atoms: _142  and  _143
REMARK   64  A    between atoms: _146  and  _148
REMARK   65  A    between atoms: _148  and  _149
REMARK   66  A    between atoms: _148  and  _151
REMARK   67  A    between atoms: _151  and  _152
REMARK   68  A    between atoms: _154  and  _156
REMARK   69  A    between atoms: _156  and  _157
REMARK   70  A    between atoms: _156  and  _159
REMARK   71  A    between atoms: _159  and  _160
REMARK   72  A    between atoms: _164  and  ZN_421
REMARK   73  A    between atoms: _165  and  _167
REMARK   74  A    between atoms: _167  and  _168
REMARK   75  A    between atoms: _170  and  _172
REMARK   76  A    between atoms: _172  and  _173
REMARK   77  A    between atoms: _176  and  _178
REMARK   78  A    between atoms: _178  and  _179
REMARK   79  A    between atoms: _178  and  _181
REMARK   80  A    between atoms: _181  and  _182
REMARK   81  A    between atoms: _188  and  _190
REMARK   82  A    between atoms: _190  and  _191
REMARK   83  A    between atoms: _190  and  _193
REMARK   84  A    between atoms: _193  and  _194
REMARK   85  A    between atoms: _194  and  _195
REMARK   86  A    between atoms: _195  and  _196
REMARK   87  A    between atoms: _196  and  _197
REMARK   88  A    between atoms: _201  and  _203
REMARK   89  A    between atoms: _203  and  _204
REMARK   90  A    between atoms: _203  and  _206
REMARK   91  A    between atoms: _209  and  _211
REMARK   92  A    between atoms: _211  and  _212
REMARK   93  A    between atoms: _211  and  _214
REMARK   94  A    between atoms: _214  and  _215
REMARK   95  A    between atoms: _218  and  _220
REMARK   96  A    between atoms: _220  and  _221
REMARK   97  A    between atoms: _220  and  _223
REMARK   98  A    between atoms: _223  and  _224
REMARK   99  A    between atoms: _225  and  ZN_421
REMARK  100  A    between atoms: _229  and  _231
REMARK  101  A    between atoms: _231  and  _232
REMARK  102  A    between atoms: _234  and  _236
REMARK  103  A    between atoms: _236  and  _237
REMARK  104  A    between atoms: _240  and  _242
REMARK  105  A    between atoms: _242  and  _243
REMARK  106  A    between atoms: _242  and  _245
REMARK  107  A    between atoms: _245  and  _246
REMARK  108  A    between atoms: _248  and  _250
REMARK  109  A    between atoms: _250  and  _251
REMARK  110  A    between atoms: _254  and  _256
REMARK  111  A    between atoms: _256  and  _257
REMARK  112  A    between atoms: _256  and  _259
REMARK  113  A    between atoms: _259  and  _260
REMARK  114  A    between atoms: _263  and  _265
REMARK  115  A    between atoms: _265  and  _266
REMARK  116  A    between atoms: _265  and  _268
REMARK  117  A    between atoms: _268  and  _269
REMARK  118  A    between atoms: _269  and  _270
REMARK  119  A    between atoms: _270  and  _271
REMARK  120  A    between atoms: _271  and  _272
REMARK  121  A    between atoms: _276  and  _278
REMARK  122  A    between atoms: _278  and  _279
REMARK  123  A    between atoms: _281  and  _283
REMARK  124  A    between atoms: _283  and  _284
REMARK  125  A    between atoms: _283  and  _286
REMARK  126  A    between atoms: _289  and  _291
REMARK  127  A    between atoms: _291  and  _292
REMARK  128  A    between atoms: _291  and  _294
REMARK  129  A    between atoms: _294  and  _295
REMARK  130  A    between atoms: _295  and  _296
REMARK  131  A    between atoms: _296  and  _297
REMARK  132  A    between atoms: _297  and  _298
REMARK  133  A    between atoms: _302  and  _304
REMARK  134  A    between atoms: _304  and  _305
REMARK  135  A    between atoms: _304  and  _307
REMARK  136  A    between atoms: _310  and  _312
REMARK  137  A    between atoms: _312  and  _313
REMARK  138  A    between atoms: _312  and  _315
REMARK  139  A    between atoms: _315  and  _316
REMARK  140  A    between atoms: _321  and  _323
REMARK  141  A    between atoms: _323  and  _324
REMARK  142  A    between atoms: _323  and  _326
REMARK  143  A    between atoms: _326  and  _327
REMARK  144  A    between atoms: _330  and  _332
REMARK  145  A    between atoms: _332  and  _333
REMARK  146  A    between atoms: _332  and  _335
REMARK  147  A    between atoms: _335  and  _336
REMARK  148  A    between atoms: _339  and  _341
REMARK  149  A    between atoms: _341  and  _342
REMARK  150  A    between atoms: _341  and  _344
REMARK  151  A    between atoms: _344  and  _345
REMARK  152  A    between atoms: _348  and  _350
REMARK  153  A    between atoms: _350  and  _351
REMARK  154  A    between atoms: _350  and  _353
REMARK  155  A    between atoms: _353  and  _354
REMARK  156  A    between atoms: _357  and  _359
REMARK  157  A    between atoms: _359  and  _360
REMARK  158  A    between atoms: _359  and  _362
REMARK  159  A    between atoms: _362  and  _363
REMARK  160  A    between atoms: _366  and  _368
REMARK  161  A    between atoms: _368  and  _369
REMARK  162  A    between atoms: _368  and  _371
REMARK  163  A    between atoms: _371  and  _372
REMARK  164  A    between atoms: _372  and  _373
REMARK  165  A    between atoms: _373  and  _374
REMARK  166  A    between atoms: _383  and  _385
REMARK  167  A    between atoms: _385  and  _386
REMARK  168  A    between atoms: _385  and  _388
REMARK  169  A    between atoms: _388  and  _389
REMARK  170  A    between atoms: _392  and  _394
REMARK  171  A    between atoms: _394  and  _395
REMARK  172  A    between atoms: _394  and  _397
REMARK  173  A    between atoms: _397  and  _398
REMARK  174  A    between atoms: _398  and  _399
REMARK  175  A    between atoms: _399  and  _400
REMARK  176  A    between atoms: _409  and  _411
REMARK  177  A    between atoms: _411  and  _412
REMARK  178  A    between atoms: _411  and  _414
REMARK  179  A    between atoms: _414  and  _415
REMARK                            x       y       z     vdW  Elec       q    Type
REMARK                         _______ _______ _______ _____ _____    ______ ____
ROOT
ATOM      1  O   HOH     1       4.257   8.038   9.834  0.00  0.00    +0.000 OA
ENDROOT
TORSDOF 0
REMARK  Name = ../refined-set-2016/3c52/3c52_pocket.pdb
REMARK  179 active torsions:
REMARK  status: ('A' for Active; 'I' for Inactive)
REMARK    1  A    between atoms: _1  and  _3
REMARK    2  A    between atoms: _3  and  _4
REMARK    3  A    between atoms: _7  and  _9
REMARK    4  A    between atoms: _9  and  _10
REMARK    5  A    between atoms: _9  and  _12
REMARK    6  A    between atoms: _12  and  _13
REMARK    7  A    between atoms: _19  and  _21
REMARK    8  A    between atoms: _21  and  _22
REMARK    9  A    between atoms: _21  and  _24
REMARK   10  A    between atoms: _24  and  _25
REMARK   11  A    between atoms: _30  and  _32
REMARK   12  A    between atoms: _32  and  _33
REMARK   13  A    between atoms: _32  and  _35
REMARK   14  A    between atoms: _35  and  _36
REMARK   15  A    between atoms: _36  and  _37
REMARK   16  A    between atoms: _42  and  _44
REMARK   17  A    between atoms: _44  and  _45
REMARK   18  A    between atoms: _44  and  _47
REMARK   19  A    between atoms: _47  and  _48
REMARK   20  A    between atoms: _50  and  _52
REMARK   21  A    between atoms: _52  and  _53
REMARK   22  A    between atoms: _52  and  _55
REMARK   23  A    between atoms: _55  and  _56
REMARK   24  A    between atoms: _61  and  _63
REMARK   25  A    between atoms: _63  and  _64
REMARK   26  A    between atoms: _63  and  _66
REMARK   27  A    between atoms: _66  and  _67
REMARK   28  A    between atoms: _70  and  _72
REMARK   29  A    between atoms: _72  and  _73
REMARK   30  A    between atoms: _72  and  _75
REMARK   31  A    between atoms: _75  and  _76
REMARK   32  A    between atoms: _79  and  _81
REMARK   33  A    between atoms: _81  and  _82
REMARK   34  A    between atoms: _81  and  _84
REMARK   35  A    between atoms: _84  and  _85
REMARK   36  A    between atoms: _89  and  ZN_421
REMARK   37  A    between atoms: _90  and  _92
REMARK   38  A    between atoms: _92  and  _93
REMARK   39  A    between atoms: _92  and  _95
REMARK   40  A    between atoms: _95  and  _96
REMARK   41  A    between atoms: _96  and  _97
REMARK   42  A    between atoms: _99  and  _101
REMARK   43  A    between atoms: _101  and  _102
REMARK   44  A    between atoms: _101  and  _104
REMARK   45  A    between atoms: _104  and  _105
REMARK   46  A    between atoms: _108  and  _110
REMARK   47  A    between atoms: _110  and  _111
REMARK   48  A    between atoms: _110  and  _113
REMARK   49  A    between atoms: _113  and  _114
REMARK   50  A    between atoms: _114  and  _115
REMARK   51  A    between atoms: _118  and  _120
REMARK   52  A    between atoms: _120  and  _121
REMARK   53  A    between atoms: _120  and  _123
REMARK   54  A    between atoms: _123  and  _124
REMARK   55  A    between atoms: _124  and  _125
REMARK   56  A    between atoms: _128  and  _130
REMARK   57  A    between atoms: _130  and  _131
REMARK   58  A    between atoms: _130  and  _133
REMARK   59  A    between atoms: _133  and  _134
REMARK   60  A    between atoms: _137  and  _139
REMARK   61  A    between atoms: _139  and  _140
REMARK   62  A    between atoms: _139  and  _142
REMARK   63  A    between atoms: _142  and  _143
REMARK   64  A    between atoms: _146  and  _148
REMARK   65  A    between atoms: _148  and  _149
REMARK   66  A    between atoms: _148  and  _151
REMARK   67  A    between atoms: _151  and  _152
REMARK   68  A    between atoms: _154  and  _156
REMARK   69  A    between atoms: _156  and  _157
REMARK   70  A    between atoms: _156  and  _159
REMARK   71  A    between atoms: _159  and  _160
REMARK   72  A    between atoms: _164  and  ZN_421
REMARK   73  A    between atoms: _165  and  _167
REMARK   74  A    between atoms: _167  and  _168
REMARK   75  A    between atoms: _170  and  _172
REMARK   76  A    between atoms: _172  and  _173
REMARK   77  A    between atoms: _176  and  _178
REMARK   78  A    between atoms: _178  and  _179
REMARK   79  A    between atoms: _178  and  _181
REMARK   80  A    between atoms: _181  and  _182
REMARK   81  A    between atoms: _188  and  _190
REMARK   82  A    between atoms: _190  and  _191
REMARK   83  A    between atoms: _190  and  _193
REMARK   84  A    between atoms: _193  and  _194
REMARK   85  A    between atoms: _194  and  _195
REMARK   86  A    between atoms: _195  and  _196
REMARK   87  A    between atoms: _196  and  _197
REMARK   88  A    between atoms: _201  and  _203
REMARK   89  A    between atoms: _203  and  _204
REMARK   90  A    between atoms: _203  and  _206
REMARK   91  A    between atoms: _209  and  _211
REMARK   92  A    between atoms: _211  and  _212
REMARK   93  A    between atoms: _211  and  _214
REMARK   94  A    between atoms: _214  and  _215
REMARK   95  A    between atoms: _218  and  _220
REMARK   96  A    between atoms: _220  and  _221
REMARK   97  A    between atoms: _220  and  _223
REMARK   98  A    between atoms: _223  and  _224
REMARK   99  A    between atoms: _225  and  ZN_421
REMARK  100  A    between atoms: _229  and  _231
REMARK  101  A    between atoms: _231  and  _232
REMARK  102  A    between atoms: _234  and  _236
REMARK  103  A    between atoms: _236  and  _237
REMARK  104  A    between atoms: _240  and  _242
REMARK  105  A    between atoms: _242  and  _243
REMARK  106  A    between atoms: _242  and  _245
REMARK  107  A    between atoms: _245  and  _246
REMARK  108  A    between atoms: _248  and  _250
REMARK  109  A    between atoms: _250  and  _251
REMARK  110  A    between atoms: _254  and  _256
REMARK  111  A    between atoms: _256  and  _257
REMARK  112  A    between atoms: _256  and  _259
REMARK  113  A    between atoms: _259  and  _260
REMARK  114  A    between atoms: _263  and  _265
REMARK  115  A    between atoms: _265  and  _266
REMARK  116  A    between atoms: _265  and  _268
REMARK  117  A    between atoms: _268  and  _269
REMARK  118  A    between atoms: _269  and  _270
REMARK  119  A    between atoms: _270  and  _271
REMARK  120  A    between atoms: _271  and  _272
REMARK  121  A    between atoms: _276  and  _278
REMARK  122  A    between atoms: _278  and  _279
REMARK  123  A    between atoms: _281  and  _283
REMARK  124  A    between atoms: _283  and  _284
REMARK  125  A    between atoms: _283  and  _286
REMARK  126  A    between atoms: _289  and  _291
REMARK  127  A    between atoms: _291  and  _292
REMARK  128  A    between atoms: _291  and  _294
REMARK  129  A    between atoms: _294  and  _295
REMARK  130  A    between atoms: _295  and  _296
REMARK  131  A    between atoms: _296  and  _297
REMARK  132  A    between atoms: _297  and  _298
REMARK  133  A    between atoms: _302  and  _304
REMARK  134  A    between atoms: _304  and  _305
REMARK  135  A    between atoms: _304  and  _307
REMARK  136  A    between atoms: _310  and  _312
REMARK  137  A    between atoms: _312  and  _313
REMARK  138  A    between atoms: _312  and  _315
REMARK  139  A    between atoms: _315  and  _316
REMARK  140  A    between atoms: _321  and  _323
REMARK  141  A    between atoms: _323  and  _324
REMARK  142  A    between atoms: _323  and  _326
REMARK  143  A    between atoms: _326  and  _327
REMARK  144  A    between atoms: _330  and  _332
REMARK  145  A    between atoms: _332  and  _333
REMARK  146  A    between atoms: _332  and  _335
REMARK  147  A    between atoms: _335  and  _336
REMARK  148  A    between atoms: _339  and  _341
REMARK  149  A    between atoms: _341  and  _342
REMARK  150  A    between atoms: _341  and  _344
REMARK  151  A    between atoms: _344  and  _345
REMARK  152  A    between atoms: _348  and  _350
REMARK  153  A    between atoms: _350  and  _351
REMARK  154  A    between atoms: _350  and  _353
REMARK  155  A    between atoms: _353  and  _354
REMARK  156  A    between atoms: _357  and  _359
REMARK  157  A    between atoms: _359  and  _360
REMARK  158  A    between atoms: _359  and  _362
REMARK  159  A    between atoms: _362  and  _363
REMARK  160  A    between atoms: _366  and  _368
REMARK  161  A    between atoms: _368  and  _369
REMARK  162  A    between atoms: _368  and  _371
REMARK  163  A    between atoms: _371  and  _372
REMARK  164  A    between atoms: _372  and  _373
REMARK  165  A    between atoms: _373  and  _374
REMARK  166  A    between atoms: _383  and  _385
REMARK  167  A    between atoms: _385  and  _386
REMARK  168  A    between atoms: _385  and  _388
REMARK  169  A    between atoms: _388  and  _389
REMARK  170  A    between atoms: _392  and  _394
REMARK  171  A    between atoms: _394  and  _395
REMARK  172  A    between atoms: _394  and  _397
REMARK  173  A    between atoms: _397  and  _398
REMARK  174  A    between atoms: _398  and  _399
REMARK  175  A    between atoms: _399  and  _400
REMARK  176  A    between atoms: _409  and  _411
REMARK  177  A    between atoms: _411  and  _412
REMARK  178  A    between atoms: _411  and  _414
REMARK  179  A    between atoms: _414  and  _415
REMARK                            x       y       z     vdW  Elec       q    Type
REMARK                         _______ _______ _______ _____ _____    ______ ____
ROOT
ATOM      1  O   HOH     1       6.174   9.383  12.269  0.00  0.00    +0.000 OA
ENDROOT
TORSDOF 0
REMARK  Name = ../refined-set-2016/3c52/3c52_pocket.pdb
REMARK  179 active torsions:
REMARK  status: ('A' for Active; 'I' for Inactive)
REMARK    1  A    between atoms: _1  and  _3
REMARK    2  A    between atoms: _3  and  _4
REMARK    3  A    between atoms: _7  and  _9
REMARK    4  A    between atoms: _9  and  _10
REMARK    5  A    between atoms: _9  and  _12
REMARK    6  A    between atoms: _12  and  _13
REMARK    7  A    between atoms: _19  and  _21
REMARK    8  A    between atoms: _21  and  _22
REMARK    9  A    between atoms: _21  and  _24
REMARK   10  A    between atoms: _24  and  _25
REMARK   11  A    between atoms: _30  and  _32
REMARK   12  A    between atoms: _32  and  _33
REMARK   13  A    between atoms: _32  and  _35
REMARK   14  A    between atoms: _35  and  _36
REMARK   15  A    between atoms: _36  and  _37
REMARK   16  A    between atoms: _42  and  _44
REMARK   17  A    between atoms: _44  and  _45
REMARK   18  A    between atoms: _44  and  _47
REMARK   19  A    between atoms: _47  and  _48
REMARK   20  A    between atoms: _50  and  _52
REMARK   21  A    between atoms: _52  and  _53
REMARK   22  A    between atoms: _52  and  _55
REMARK   23  A    between atoms: _55  and  _56
REMARK   24  A    between atoms: _61  and  _63
REMARK   25  A    between atoms: _63  and  _64
REMARK   26  A    between atoms: _63  and  _66
REMARK   27  A    between atoms: _66  and  _67
REMARK   28  A    between atoms: _70  and  _72
REMARK   29  A    between atoms: _72  and  _73
REMARK   30  A    between atoms: _72  and  _75
REMARK   31  A    between atoms: _75  and  _76
REMARK   32  A    between atoms: _79  and  _81
REMARK   33  A    between atoms: _81  and  _82
REMARK   34  A    between atoms: _81  and  _84
REMARK   35  A    between atoms: _84  and  _85
REMARK   36  A    between atoms: _89  and  ZN_421
REMARK   37  A    between atoms: _90  and  _92
REMARK   38  A    between atoms: _92  and  _93
REMARK   39  A    between atoms: _92  and  _95
REMARK   40  A    between atoms: _95  and  _96
REMARK   41  A    between atoms: _96  and  _97
REMARK   42  A    between atoms: _99  and  _101
REMARK   43  A    between atoms: _101  and  _102
REMARK   44  A    between atoms: _101  and  _104
REMARK   45  A    between atoms: _104  and  _105
REMARK   46  A    between atoms: _108  and  _110
REMARK   47  A    between atoms: _110  and  _111
REMARK   48  A    between atoms: _110  and  _113
REMARK   49  A    between atoms: _113  and  _114
REMARK   50  A    between atoms: _114  and  _115
REMARK   51  A    between atoms: _118  and  _120
REMARK   52  A    between atoms: _120  and  _121
REMARK   53  A    between atoms: _120  and  _123
REMARK   54  A    between atoms: _123  and  _124
REMARK   55  A    between atoms: _124  and  _125
REMARK   56  A    between atoms: _128  and  _130
REMARK   57  A    between atoms: _130  and  _131
REMARK   58  A    between atoms: _130  and  _133
REMARK   59  A    between atoms: _133  and  _134
REMARK   60  A    between atoms: _137  and  _139
REMARK   61  A    between atoms: _139  and  _140
REMARK   62  A    between atoms: _139  and  _142
REMARK   63  A    between atoms: _142  and  _143
REMARK   64  A    between atoms: _146  and  _148
REMARK   65  A    between atoms: _148  and  _149
REMARK   66  A    between atoms: _148  and  _151
REMARK   67  A    between atoms: _151  and  _152
REMARK   68  A    between atoms: _154  and  _156
REMARK   69  A    between atoms: _156  and  _157
REMARK   70  A    between atoms: _156  and  _159
REMARK   71  A    between atoms: _159  and  _160
REMARK   72  A    between atoms: _164  and  ZN_421
REMARK   73  A    between atoms: _165  and  _167
REMARK   74  A    between atoms: _167  and  _168
REMARK   75  A    between atoms: _170  and  _172
REMARK   76  A    between atoms: _172  and  _173
REMARK   77  A    between atoms: _176  and  _178
REMARK   78  A    between atoms: _178  and  _179
REMARK   79  A    between atoms: _178  and  _181
REMARK   80  A    between atoms: _181  and  _182
REMARK   81  A    between atoms: _188  and  _190
REMARK   82  A    between atoms: _190  and  _191
REMARK   83  A    between atoms: _190  and  _193
REMARK   84  A    between atoms: _193  and  _194
REMARK   85  A    between atoms: _194  and  _195
REMARK   86  A    between atoms: _195  and  _196
REMARK   87  A    between atoms: _196  and  _197
REMARK   88  A    between atoms: _201  and  _203
REMARK   89  A    between atoms: _203  and  _204
REMARK   90  A    between atoms: _203  and  _206
REMARK   91  A    between atoms: _209  and  _211
REMARK   92  A    between atoms: _211  and  _212
REMARK   93  A    between atoms: _211  and  _214
REMARK   94  A    between atoms: _214  and  _215
REMARK   95  A    between atoms: _218  and  _220
REMARK   96  A    between atoms: _220  and  _221
REMARK   97  A    between atoms: _220  and  _223
REMARK   98  A    between atoms: _223  and  _224
REMARK   99  A    between atoms: _225  and  ZN_421
REMARK  100  A    between atoms: _229  and  _231
REMARK  101  A    between atoms: _231  and  _232
REMARK  102  A    between atoms: _234  and  _236
REMARK  103  A    between atoms: _236  and  _237
REMARK  104  A    between atoms: _240  and  _242
REMARK  105  A    between atoms: _242  and  _243
REMARK  106  A    between atoms: _242  and  _245
REMARK  107  A    between atoms: _245  and  _246
REMARK  108  A    between atoms: _248  and  _250
REMARK  109  A    between atoms: _250  and  _251
REMARK  110  A    between atoms: _254  and  _256
REMARK  111  A    between atoms: _256  and  _257
REMARK  112  A    between atoms: _256  and  _259
REMARK  113  A    between atoms: _259  and  _260
REMARK  114  A    between atoms: _263  and  _265
REMARK  115  A    between atoms: _265  and  _266
REMARK  116  A    between atoms: _265  and  _268
REMARK  117  A    between atoms: _268  and  _269
REMARK  118  A    between atoms: _269  and  _270
REMARK  119  A    between atoms: _270  and  _271
REMARK  120  A    between atoms: _271  and  _272
REMARK  121  A    between atoms: _276  and  _278
REMARK  122  A    between atoms: _278  and  _279
REMARK  123  A    between atoms: _281  and  _283
REMARK  124  A    between atoms: _283  and  _284
REMARK  125  A    between atoms: _283  and  _286
REMARK  126  A    between atoms: _289  and  _291
REMARK  127  A    between atoms: _291  and  _292
REMARK  128  A    between atoms: _291  and  _294
REMARK  129  A    between atoms: _294  and  _295
REMARK  130  A    between atoms: _295  and  _296
REMARK  131  A    between atoms: _296  and  _297
REMARK  132  A    between atoms: _297  and  _298
REMARK  133  A    between atoms: _302  and  _304
REMARK  134  A    between atoms: _304  and  _305
REMARK  135  A    between atoms: _304  and  _307
REMARK  136  A    between atoms: _310  and  _312
REMARK  137  A    between atoms: _312  and  _313
REMARK  138  A    between atoms: _312  and  _315
REMARK  139  A    between atoms: _315  and  _316
REMARK  140  A    between atoms: _321  and  _323
REMARK  141  A    between atoms: _323  and  _324
REMARK  142  A    between atoms: _323  and  _326
REMARK  143  A    between atoms: _326  and  _327
REMARK  144  A    between atoms: _330  and  _332
REMARK  145  A    between atoms: _332  and  _333
REMARK  146  A    between atoms: _332  and  _335
REMARK  147  A    between atoms: _335  and  _336
REMARK  148  A    between atoms: _339  and  _341
REMARK  149  A    between atoms: _341  and  _342
REMARK  150  A    between atoms: _341  and  _344
REMARK  151  A    between atoms: _344  and  _345
REMARK  152  A    between atoms: _348  and  _350
REMARK  153  A    between atoms: _350  and  _351
REMARK  154  A    between atoms: _350  and  _353
REMARK  155  A    between atoms: _353  and  _354
REMARK  156  A    between atoms: _357  and  _359
REMARK  157  A    between atoms: _359  and  _360
REMARK  158  A    between atoms: _359  and  _362
REMARK  159  A    between atoms: _362  and  _363
REMARK  160  A    between atoms: _366  and  _368
REMARK  161  A    between atoms: _368  and  _369
REMARK  162  A    between atoms: _368  and  _371
REMARK  163  A    between atoms: _371  and  _372
REMARK  164  A    between atoms: _372  and  _373
REMARK  165  A    between atoms: _373  and  _374
REMARK  166  A    between atoms: _383  and  _385
REMARK  167  A    between atoms: _385  and  _386
REMARK  168  A    between atoms: _385  and  _388
REMARK  169  A    between atoms: _388  and  _389
REMARK  170  A    between atoms: _392  and  _394
REMARK  171  A    between atoms: _394  and  _395
REMARK  172  A    between atoms: _394  and  _397
REMARK  173  A    between atoms: _397  and  _398
REMARK  174  A    between atoms: _398  and  _399
REMARK  175  A    between atoms: _399  and  _400
REMARK  176  A    between atoms: _409  and  _411
REMARK  177  A    between atoms: _411  and  _412
REMARK  178  A    between atoms: _411  and  _414
REMARK  179  A    between atoms: _414  and  _415
REMARK                            x       y       z     vdW  Elec       q    Type
REMARK                         _______ _______ _______ _____ _____    ______ ____
ROOT
ATOM      1  O   HOH     1       5.532  11.585   3.835  0.00  0.00    +0.000 OA
ENDROOT
TORSDOF 0
REMARK  Name = ../refined-set-2016/3c52/3c52_pocket.pdb
REMARK  179 active torsions:
REMARK  status: ('A' for Active; 'I' for Inactive)
REMARK    1  A    between atoms: _1  and  _3
REMARK    2  A    between atoms: _3  and  _4
REMARK    3  A    between atoms: _7  and  _9
REMARK    4  A    between atoms: _9  and  _10
REMARK    5  A    between atoms: _9  and  _12
REMARK    6  A    between atoms: _12  and  _13
REMARK    7  A    between atoms: _19  and  _21
REMARK    8  A    between atoms: _21  and  _22
REMARK    9  A    between atoms: _21  and  _24
REMARK   10  A    between atoms: _24  and  _25
REMARK   11  A    between atoms: _30  and  _32
REMARK   12  A    between atoms: _32  and  _33
REMARK   13  A    between atoms: _32  and  _35
REMARK   14  A    between atoms: _35  and  _36
REMARK   15  A    between atoms: _36  and  _37
REMARK   16  A    between atoms: _42  and  _44
REMARK   17  A    between atoms: _44  and  _45
REMARK   18  A    between atoms: _44  and  _47
REMARK   19  A    between atoms: _47  and  _48
REMARK   20  A    between atoms: _50  and  _52
REMARK   21  A    between atoms: _52  and  _53
REMARK   22  A    between atoms: _52  and  _55
REMARK   23  A    between atoms: _55  and  _56
REMARK   24  A    between atoms: _61  and  _63
REMARK   25  A    between atoms: _63  and  _64
REMARK   26  A    between atoms: _63  and  _66
REMARK   27  A    between atoms: _66  and  _67
REMARK   28  A    between atoms: _70  and  _72
REMARK   29  A    between atoms: _72  and  _73
REMARK   30  A    between atoms: _72  and  _75
REMARK   31  A    between atoms: _75  and  _76
REMARK   32  A    between atoms: _79  and  _81
REMARK   33  A    between atoms: _81  and  _82
REMARK   34  A    between atoms: _81  and  _84
REMARK   35  A    between atoms: _84  and  _85
REMARK   36  A    between atoms: _89  and  ZN_421
REMARK   37  A    between atoms: _90  and  _92
REMARK   38  A    between atoms: _92  and  _93
REMARK   39  A    between atoms: _92  and  _95
REMARK   40  A    between atoms: _95  and  _96
REMARK   41  A    between atoms: _96  and  _97
REMARK   42  A    between atoms: _99  and  _101
REMARK   43  A    between atoms: _101  and  _102
REMARK   44  A    between atoms: _101  and  _104
REMARK   45  A    between atoms: _104  and  _105
REMARK   46  A    between atoms: _108  and  _110
REMARK   47  A    between atoms: _110  and  _111
REMARK   48  A    between atoms: _110  and  _113
REMARK   49  A    between atoms: _113  and  _114
REMARK   50  A    between atoms: _114  and  _115
REMARK   51  A    between atoms: _118  and  _120
REMARK   52  A    between atoms: _120  and  _121
REMARK   53  A    between atoms: _120  and  _123
REMARK   54  A    between atoms: _123  and  _124
REMARK   55  A    between atoms: _124  and  _125
REMARK   56  A    between atoms: _128  and  _130
REMARK   57  A    between atoms: _130  and  _131
REMARK   58  A    between atoms: _130  and  _133
REMARK   59  A    between atoms: _133  and  _134
REMARK   60  A    between atoms: _137  and  _139
REMARK   61  A    between atoms: _139  and  _140
REMARK   62  A    between atoms: _139  and  _142
REMARK   63  A    between atoms: _142  and  _143
REMARK   64  A    between atoms: _146  and  _148
REMARK   65  A    between atoms: _148  and  _149
REMARK   66  A    between atoms: _148  and  _151
REMARK   67  A    between atoms: _151  and  _152
REMARK   68  A    between atoms: _154  and  _156
REMARK   69  A    between atoms: _156  and  _157
REMARK   70  A    between atoms: _156  and  _159
REMARK   71  A    between atoms: _159  and  _160
REMARK   72  A    between atoms: _164  and  ZN_421
REMARK   73  A    between atoms: _165  and  _167
REMARK   74  A    between atoms: _167  and  _168
REMARK   75  A    between atoms: _170  and  _172
REMARK   76  A    between atoms: _172  and  _173
REMARK   77  A    between atoms: _176  and  _178
REMARK   78  A    between atoms: _178  and  _179
REMARK   79  A    between atoms: _178  and  _181
REMARK   80  A    between atoms: _181  and  _182
REMARK   81  A    between atoms: _188  and  _190
REMARK   82  A    between atoms: _190  and  _191
REMARK   83  A    between atoms: _190  and  _193
REMARK   84  A    between atoms: _193  and  _194
REMARK   85  A    between atoms: _194  and  _195
REMARK   86  A    between atoms: _195  and  _196
REMARK   87  A    between atoms: _196  and  _197
REMARK   88  A    between atoms: _201  and  _203
REMARK   89  A    between atoms: _203  and  _204
REMARK   90  A    between atoms: _203  and  _206
REMARK   91  A    between atoms: _209  and  _211
REMARK   92  A    between atoms: _211  and  _212
REMARK   93  A    between atoms: _211  and  _214
REMARK   94  A    between atoms: _214  and  _215
REMARK   95  A    between atoms: _218  and  _220
REMARK   96  A    between atoms: _220  and  _221
REMARK   97  A    between atoms: _220  and  _223
REMARK   98  A    between atoms: _223  and  _224
REMARK   99  A    between atoms: _225  and  ZN_421
REMARK  100  A    between atoms: _229  and  _231
REMARK  101  A    between atoms: _231  and  _232
REMARK  102  A    between atoms: _234  and  _236
REMARK  103  A    between atoms: _236  and  _237
REMARK  104  A    between atoms: _240  and  _242
REMARK  105  A    between atoms: _242  and  _243
REMARK  106  A    between atoms: _242  and  _245
REMARK  107  A    between atoms: _245  and  _246
REMARK  108  A    between atoms: _248  and  _250
REMARK  109  A    between atoms: _250  and  _251
REMARK  110  A    between atoms: _254  and  _256
REMARK  111  A    between atoms: _256  and  _257
REMARK  112  A    between atoms: _256  and  _259
REMARK  113  A    between atoms: _259  and  _260
REMARK  114  A    between atoms: _263  and  _265
REMARK  115  A    between atoms: _265  and  _266
REMARK  116  A    between atoms: _265  and  _268
REMARK  117  A    between atoms: _268  and  _269
REMARK  118  A    between atoms: _269  and  _270
REMARK  119  A    between atoms: _270  and  _271
REMARK  120  A    between atoms: _271  and  _272
REMARK  121  A    between atoms: _276  and  _278
REMARK  122  A    between atoms: _278  and  _279
REMARK  123  A    between atoms: _281  and  _283
REMARK  124  A    between atoms: _283  and  _284
REMARK  125  A    between atoms: _283  and  _286
REMARK  126  A    between atoms: _289  and  _291
REMARK  127  A    between atoms: _291  and  _292
REMARK  128  A    between atoms: _291  and  _294
REMARK  129  A    between atoms: _294  and  _295
REMARK  130  A    between atoms: _295  and  _296
REMARK  131  A    between atoms: _296  and  _297
REMARK  132  A    between atoms: _297  and  _298
REMARK  133  A    between atoms: _302  and  _304
REMARK  134  A    between atoms: _304  and  _305
REMARK  135  A    between atoms: _304  and  _307
REMARK  136  A    between atoms: _310  and  _312
REMARK  137  A    between atoms: _312  and  _313
REMARK  138  A    between atoms: _312  and  _315
REMARK  139  A    between atoms: _315  and  _316
REMARK  140  A    between atoms: _321  and  _323
REMARK  141  A    between atoms: _323  and  _324
REMARK  142  A    between atoms: _323  and  _326
REMARK  143  A    between atoms: _326  and  _327
REMARK  144  A    between atoms: _330  and  _332
REMARK  145  A    between atoms: _332  and  _333
REMARK  146  A    between atoms: _332  and  _335
REMARK  147  A    between atoms: _335  and  _336
REMARK  148  A    between atoms: _339  and  _341
REMARK  149  A    between atoms: _341  and  _342
REMARK  150  A    between atoms: _341  and  _344
REMARK  151  A    between atoms: _344  and  _345
REMARK  152  A    between atoms: _348  and  _350
REMARK  153  A    between atoms: _350  and  _351
REMARK  154  A    between atoms: _350  and  _353
REMARK  155  A    between atoms: _353  and  _354
REMARK  156  A    between atoms: _357  and  _359
REMARK  157  A    between atoms: _359  and  _360
REMARK  158  A    between atoms: _359  and  _362
REMARK  159  A    between atoms: _362  and  _363
REMARK  160  A    between atoms: _366  and  _368
REMARK  161  A    between atoms: _368  and  _369
REMARK  162  A    between atoms: _368  and  _371
REMARK  163  A    between atoms: _371  and  _372
REMARK  164  A    between atoms: _372  and  _373
REMARK  165  A    between atoms: _373  and  _374
REMARK  166  A    between atoms: _383  and  _385
REMARK  167  A    between atoms: _385  and  _386
REMARK  168  A    between atoms: _385  and  _388
REMARK  169  A    between atoms: _388  and  _389
REMARK  170  A    between atoms: _392  and  _394
REMARK  171  A    between atoms: _394  and  _395
REMARK  172  A    between atoms: _394  and  _397
REMARK  173  A    between atoms: _397  and  _398
REMARK  174  A    between atoms: _398  and  _399
REMARK  175  A    between atoms: _399  and  _400
REMARK  176  A    between atoms: _409  and  _411
REMARK  177  A    between atoms: _411  and  _412
REMARK  178  A    between atoms: _411  and  _414
REMARK  179  A    between atoms: _414  and  _415
REMARK                            x       y       z     vdW  Elec       q    Type
REMARK                         _______ _______ _______ _____ _____    ______ ____
ROOT
ATOM      1  O   HOH     1       5.337  11.366   8.169  0.00  0.00    +0.000 OA
ENDROOT
TORSDOF 0
REMARK  Name = ../refined-set-2016/3c52/3c52_pocket.pdb
REMARK  179 active torsions:
REMARK  status: ('A' for Active; 'I' for Inactive)
REMARK    1  A    between atoms: _1  and  _3
REMARK    2  A    between atoms: _3  and  _4
REMARK    3  A    between atoms: _7  and  _9
REMARK    4  A    between atoms: _9  and  _10
REMARK    5  A    between atoms: _9  and  _12
REMARK    6  A    between atoms: _12  and  _13
REMARK    7  A    between atoms: _19  and  _21
REMARK    8  A    between atoms: _21  and  _22
REMARK    9  A    between atoms: _21  and  _24
REMARK   10  A    between atoms: _24  and  _25
REMARK   11  A    between atoms: _30  and  _32
REMARK   12  A    between atoms: _32  and  _33
REMARK   13  A    between atoms: _32  and  _35
REMARK   14  A    between atoms: _35  and  _36
REMARK   15  A    between atoms: _36  and  _37
REMARK   16  A    between atoms: _42  and  _44
REMARK   17  A    between atoms: _44  and  _45
REMARK   18  A    between atoms: _44  and  _47
REMARK   19  A    between atoms: _47  and  _48
REMARK   20  A    between atoms: _50  and  _52
REMARK   21  A    between atoms: _52  and  _53
REMARK   22  A    between atoms: _52  and  _55
REMARK   23  A    between atoms: _55  and  _56
REMARK   24  A    between atoms: _61  and  _63
REMARK   25  A    between atoms: _63  and  _64
REMARK   26  A    between atoms: _63  and  _66
REMARK   27  A    between atoms: _66  and  _67
REMARK   28  A    between atoms: _70  and  _72
REMARK   29  A    between atoms: _72  and  _73
REMARK   30  A    between atoms: _72  and  _75
REMARK   31  A    between atoms: _75  and  _76
REMARK   32  A    between atoms: _79  and  _81
REMARK   33  A    between atoms: _81  and  _82
REMARK   34  A    between atoms: _81  and  _84
REMARK   35  A    between atoms: _84  and  _85
REMARK   36  A    between atoms: _89  and  ZN_421
REMARK   37  A    between atoms: _90  and  _92
REMARK   38  A    between atoms: _92  and  _93
REMARK   39  A    between atoms: _92  and  _95
REMARK   40  A    between atoms: _95  and  _96
REMARK   41  A    between atoms: _96  and  _97
REMARK   42  A    between atoms: _99  and  _101
REMARK   43  A    between atoms: _101  and  _102
REMARK   44  A    between atoms: _101  and  _104
REMARK   45  A    between atoms: _104  and  _105
REMARK   46  A    between atoms: _108  and  _110
REMARK   47  A    between atoms: _110  and  _111
REMARK   48  A    between atoms: _110  and  _113
REMARK   49  A    between atoms: _113  and  _114
REMARK   50  A    between atoms: _114  and  _115
REMARK   51  A    between atoms: _118  and  _120
REMARK   52  A    between atoms: _120  and  _121
REMARK   53  A    between atoms: _120  and  _123
REMARK   54  A    between atoms: _123  and  _124
REMARK   55  A    between atoms: _124  and  _125
REMARK   56  A    between atoms: _128  and  _130
REMARK   57  A    between atoms: _130  and  _131
REMARK   58  A    between atoms: _130  and  _133
REMARK   59  A    between atoms: _133  and  _134
REMARK   60  A    between atoms: _137  and  _139
REMARK   61  A    between atoms: _139  and  _140
REMARK   62  A    between atoms: _139  and  _142
REMARK   63  A    between atoms: _142  and  _143
REMARK   64  A    between atoms: _146  and  _148
REMARK   65  A    between atoms: _148  and  _149
REMARK   66  A    between atoms: _148  and  _151
REMARK   67  A    between atoms: _151  and  _152
REMARK   68  A    between atoms: _154  and  _156
REMARK   69  A    between atoms: _156  and  _157
REMARK   70  A    between atoms: _156  and  _159
REMARK   71  A    between atoms: _159  and  _160
REMARK   72  A    between atoms: _164  and  ZN_421
REMARK   73  A    between atoms: _165  and  _167
REMARK   74  A    between atoms: _167  and  _168
REMARK   75  A    between atoms: _170  and  _172
REMARK   76  A    between atoms: _172  and  _173
REMARK   77  A    between atoms: _176  and  _178
REMARK   78  A    between atoms: _178  and  _179
REMARK   79  A    between atoms: _178  and  _181
REMARK   80  A    between atoms: _181  and  _182
REMARK   81  A    between atoms: _188  and  _190
REMARK   82  A    between atoms: _190  and  _191
REMARK   83  A    between atoms: _190  and  _193
REMARK   84  A    between atoms: _193  and  _194
REMARK   85  A    between atoms: _194  and  _195
REMARK   86  A    between atoms: _195  and  _196
REMARK   87  A    between atoms: _196  and  _197
REMARK   88  A    between atoms: _201  and  _203
REMARK   89  A    between atoms: _203  and  _204
REMARK   90  A    between atoms: _203  and  _206
REMARK   91  A    between atoms: _209  and  _211
REMARK   92  A    between atoms: _211  and  _212
REMARK   93  A    between atoms: _211  and  _214
REMARK   94  A    between atoms: _214  and  _215
REMARK   95  A    between atoms: _218  and  _220
REMARK   96  A    between atoms: _220  and  _221
REMARK   97  A    between atoms: _220  and  _223
REMARK   98  A    between atoms: _223  and  _224
REMARK   99  A    between atoms: _225  and  ZN_421
REMARK  100  A    between atoms: _229  and  _231
REMARK  101  A    between atoms: _231  and  _232
REMARK  102  A    between atoms: _234  and  _236
REMARK  103  A    between atoms: _236  and  _237
REMARK  104  A    between atoms: _240  and  _242
REMARK  105  A    between atoms: _242  and  _243
REMARK  106  A    between atoms: _242  and  _245
REMARK  107  A    between atoms: _245  and  _246
REMARK  108  A    between atoms: _248  and  _250
REMARK  109  A    between atoms: _250  and  _251
REMARK  110  A    between atoms: _254  and  _256
REMARK  111  A    between atoms: _256  and  _257
REMARK  112  A    between atoms: _256  and  _259
REMARK  113  A    between atoms: _259  and  _260
REMARK  114  A    between atoms: _263  and  _265
REMARK  115  A    between atoms: _265  and  _266
REMARK  116  A    between atoms: _265  and  _268
REMARK  117  A    between atoms: _268  and  _269
REMARK  118  A    between atoms: _269  and  _270
REMARK  119  A    between atoms: _270  and  _271
REMARK  120  A    between atoms: _271  and  _272
REMARK  121  A    between atoms: _276  and  _278
REMARK  122  A    between atoms: _278  and  _279
REMARK  123  A    between atoms: _281  and  _283
REMARK  124  A    between atoms: _283  and  _284
REMARK  125  A    between atoms: _283  and  _286
REMARK  126  A    between atoms: _289  and  _291
REMARK  127  A    between atoms: _291  and  _292
REMARK  128  A    between atoms: _291  and  _294
REMARK  129  A    between atoms: _294  and  _295
REMARK  130  A    between atoms: _295  and  _296
REMARK  131  A    between atoms: _296  and  _297
REMARK  132  A    between atoms: _297  and  _298
REMARK  133  A    between atoms: _302  and  _304
REMARK  134  A    between atoms: _304  and  _305
REMARK  135  A    between atoms: _304  and  _307
REMARK  136  A    between atoms: _310  and  _312
REMARK  137  A    between atoms: _312  and  _313
REMARK  138  A    between atoms: _312  and  _315
REMARK  139  A    between atoms: _315  and  _316
REMARK  140  A    between atoms: _321  and  _323
REMARK  141  A    between atoms: _323  and  _324
REMARK  142  A    between atoms: _323  and  _326
REMARK  143  A    between atoms: _326  and  _327
REMARK  144  A    between atoms: _330  and  _332
REMARK  145  A    between atoms: _332  and  _333
REMARK  146  A    between atoms: _332  and  _335
REMARK  147  A    between atoms: _335  and  _336
REMARK  148  A    between atoms: _339  and  _341
REMARK  149  A    between atoms: _341  and  _342
REMARK  150  A    between atoms: _341  and  _344
REMARK  151  A    between atoms: _344  and  _345
REMARK  152  A    between atoms: _348  and  _350
REMARK  153  A    between atoms: _350  and  _351
REMARK  154  A    between atoms: _350  and  _353
REMARK  155  A    between atoms: _353  and  _354
REMARK  156  A    between atoms: _357  and  _359
REMARK  157  A    between atoms: _359  and  _360
REMARK  158  A    between atoms: _359  and  _362
REMARK  159  A    between atoms: _362  and  _363
REMARK  160  A    between atoms: _366  and  _368
REMARK  161  A    between atoms: _368  and  _369
REMARK  162  A    between atoms: _368  and  _371
REMARK  163  A    between atoms: _371  and  _372
REMARK  164  A    between atoms: _372  and  _373
REMARK  165  A    between atoms: _373  and  _374
REMARK  166  A    between atoms: _383  and  _385
REMARK  167  A    between atoms: _385  and  _386
REMARK  168  A    between atoms: _385  and  _388
REMARK  169  A    between atoms: _388  and  _389
REMARK  170  A    between atoms: _392  and  _394
REMARK  171  A    between atoms: _394  and  _395
REMARK  172  A    between atoms: _394  and  _397
REMARK  173  A    between atoms: _397  and  _398
REMARK  174  A    between atoms: _398  and  _399
REMARK  175  A    between atoms: _399  and  _400
REMARK  176  A    between atoms: _409  and  _411
REMARK  177  A    between atoms: _411  and  _412
REMARK  178  A    between atoms: _411  and  _414
REMARK  179  A    between atoms: _414  and  _415
REMARK                            x       y       z     vdW  Elec       q    Type
REMARK                         _______ _______ _______ _____ _____    ______ ____
ROOT
ATOM      1  O   HOH     1       4.671   1.981   8.926  0.00  0.00    +0.000 OA
ENDROOT
TORSDOF 0
REMARK  Name = ../refined-set-2016/3c52/3c52_pocket.pdb
REMARK  179 active torsions:
REMARK  status: ('A' for Active; 'I' for Inactive)
REMARK    1  A    between atoms: _1  and  _3
REMARK    2  A    between atoms: _3  and  _4
REMARK    3  A    between atoms: _7  and  _9
REMARK    4  A    between atoms: _9  and  _10
REMARK    5  A    between atoms: _9  and  _12
REMARK    6  A    between atoms: _12  and  _13
REMARK    7  A    between atoms: _19  and  _21
REMARK    8  A    between atoms: _21  and  _22
REMARK    9  A    between atoms: _21  and  _24
REMARK   10  A    between atoms: _24  and  _25
REMARK   11  A    between atoms: _30  and  _32
REMARK   12  A    between atoms: _32  and  _33
REMARK   13  A    between atoms: _32  and  _35
REMARK   14  A    between atoms: _35  and  _36
REMARK   15  A    between atoms: _36  and  _37
REMARK   16  A    between atoms: _42  and  _44
REMARK   17  A    between atoms: _44  and  _45
REMARK   18  A    between atoms: _44  and  _47
REMARK   19  A    between atoms: _47  and  _48
REMARK   20  A    between atoms: _50  and  _52
REMARK   21  A    between atoms: _52  and  _53
REMARK   22  A    between atoms: _52  and  _55
REMARK   23  A    between atoms: _55  and  _56
REMARK   24  A    between atoms: _61  and  _63
REMARK   25  A    between atoms: _63  and  _64
REMARK   26  A    between atoms: _63  and  _66
REMARK   27  A    between atoms: _66  and  _67
REMARK   28  A    between atoms: _70  and  _72
REMARK   29  A    between atoms: _72  and  _73
REMARK   30  A    between atoms: _72  and  _75
REMARK   31  A    between atoms: _75  and  _76
REMARK   32  A    between atoms: _79  and  _81
REMARK   33  A    between atoms: _81  and  _82
REMARK   34  A    between atoms: _81  and  _84
REMARK   35  A    between atoms: _84  and  _85
REMARK   36  A    between atoms: _89  and  ZN_421
REMARK   37  A    between atoms: _90  and  _92
REMARK   38  A    between atoms: _92  and  _93
REMARK   39  A    between atoms: _92  and  _95
REMARK   40  A    between atoms: _95  and  _96
REMARK   41  A    between atoms: _96  and  _97
REMARK   42  A    between atoms: _99  and  _101
REMARK   43  A    between atoms: _101  and  _102
REMARK   44  A    between atoms: _101  and  _104
REMARK   45  A    between atoms: _104  and  _105
REMARK   46  A    between atoms: _108  and  _110
REMARK   47  A    between atoms: _110  and  _111
REMARK   48  A    between atoms: _110  and  _113
REMARK   49  A    between atoms: _113  and  _114
REMARK   50  A    between atoms: _114  and  _115
REMARK   51  A    between atoms: _118  and  _120
REMARK   52  A    between atoms: _120  and  _121
REMARK   53  A    between atoms: _120  and  _123
REMARK   54  A    between atoms: _123  and  _124
REMARK   55  A    between atoms: _124  and  _125
REMARK   56  A    between atoms: _128  and  _130
REMARK   57  A    between atoms: _130  and  _131
REMARK   58  A    between atoms: _130  and  _133
REMARK   59  A    between atoms: _133  and  _134
REMARK   60  A    between atoms: _137  and  _139
REMARK   61  A    between atoms: _139  and  _140
REMARK   62  A    between atoms: _139  and  _142
REMARK   63  A    between atoms: _142  and  _143
REMARK   64  A    between atoms: _146  and  _148
REMARK   65  A    between atoms: _148  and  _149
REMARK   66  A    between atoms: _148  and  _151
REMARK   67  A    between atoms: _151  and  _152
REMARK   68  A    between atoms: _154  and  _156
REMARK   69  A    between atoms: _156  and  _157
REMARK   70  A    between atoms: _156  and  _159
REMARK   71  A    between atoms: _159  and  _160
REMARK   72  A    between atoms: _164  and  ZN_421
REMARK   73  A    between atoms: _165  and  _167
REMARK   74  A    between atoms: _167  and  _168
REMARK   75  A    between atoms: _170  and  _172
REMARK   76  A    between atoms: _172  and  _173
REMARK   77  A    between atoms: _176  and  _178
REMARK   78  A    between atoms: _178  and  _179
REMARK   79  A    between atoms: _178  and  _181
REMARK   80  A    between atoms: _181  and  _182
REMARK   81  A    between atoms: _188  and  _190
REMARK   82  A    between atoms: _190  and  _191
REMARK   83  A    between atoms: _190  and  _193
REMARK   84  A    between atoms: _193  and  _194
REMARK   85  A    between atoms: _194  and  _195
REMARK   86  A    between atoms: _195  and  _196
REMARK   87  A    between atoms: _196  and  _197
REMARK   88  A    between atoms: _201  and  _203
REMARK   89  A    between atoms: _203  and  _204
REMARK   90  A    between atoms: _203  and  _206
REMARK   91  A    between atoms: _209  and  _211
REMARK   92  A    between atoms: _211  and  _212
REMARK   93  A    between atoms: _211  and  _214
REMARK   94  A    between atoms: _214  and  _215
REMARK   95  A    between atoms: _218  and  _220
REMARK   96  A    between atoms: _220  and  _221
REMARK   97  A    between atoms: _220  and  _223
REMARK   98  A    between atoms: _223  and  _224
REMARK   99  A    between atoms: _225  and  ZN_421
REMARK  100  A    between atoms: _229  and  _231
REMARK  101  A    between atoms: _231  and  _232
REMARK  102  A    between atoms: _234  and  _236
REMARK  103  A    between atoms: _236  and  _237
REMARK  104  A    between atoms: _240  and  _242
REMARK  105  A    between atoms: _242  and  _243
REMARK  106  A    between atoms: _242  and  _245
REMARK  107  A    between atoms: _245  and  _246
REMARK  108  A    between atoms: _248  and  _250
REMARK  109  A    between atoms: _250  and  _251
REMARK  110  A    between atoms: _254  and  _256
REMARK  111  A    between atoms: _256  and  _257
REMARK  112  A    between atoms: _256  and  _259
REMARK  113  A    between atoms: _259  and  _260
REMARK  114  A    between atoms: _263  and  _265
REMARK  115  A    between atoms: _265  and  _266
REMARK  116  A    between atoms: _265  and  _268
REMARK  117  A    between atoms: _268  and  _269
REMARK  118  A    between atoms: _269  and  _270
REMARK  119  A    between atoms: _270  and  _271
REMARK  120  A    between atoms: _271  and  _272
REMARK  121  A    between atoms: _276  and  _278
REMARK  122  A    between atoms: _278  and  _279
REMARK  123  A    between atoms: _281  and  _283
REMARK  124  A    between atoms: _283  and  _284
REMARK  125  A    between atoms: _283  and  _286
REMARK  126  A    between atoms: _289  and  _291
REMARK  127  A    between atoms: _291  and  _292
REMARK  128  A    between atoms: _291  and  _294
REMARK  129  A    between atoms: _294  and  _295
REMARK  130  A    between atoms: _295  and  _296
REMARK  131  A    between atoms: _296  and  _297
REMARK  132  A    between atoms: _297  and  _298
REMARK  133  A    between atoms: _302  and  _304
REMARK  134  A    between atoms: _304  and  _305
REMARK  135  A    between atoms: _304  and  _307
REMARK  136  A    between atoms: _310  and  _312
REMARK  137  A    between atoms: _312  and  _313
REMARK  138  A    between atoms: _312  and  _315
REMARK  139  A    between atoms: _315  and  _316
REMARK  140  A    between atoms: _321  and  _323
REMARK  141  A    between atoms: _323  and  _324
REMARK  142  A    between atoms: _323  and  _326
REMARK  143  A    between atoms: _326  and  _327
REMARK  144  A    between atoms: _330  and  _332
REMARK  145  A    between atoms: _332  and  _333
REMARK  146  A    between atoms: _332  and  _335
REMARK  147  A    between atoms: _335  and  _336
REMARK  148  A    between atoms: _339  and  _341
REMARK  149  A    between atoms: _341  and  _342
REMARK  150  A    between atoms: _341  and  _344
REMARK  151  A    between atoms: _344  and  _345
REMARK  152  A    between atoms: _348  and  _350
REMARK  153  A    between atoms: _350  and  _351
REMARK  154  A    between atoms: _350  and  _353
REMARK  155  A    between atoms: _353  and  _354
REMARK  156  A    between atoms: _357  and  _359
REMARK  157  A    between atoms: _359  and  _360
REMARK  158  A    between atoms: _359  and  _362
REMARK  159  A    between atoms: _362  and  _363
REMARK  160  A    between atoms: _366  and  _368
REMARK  161  A    between atoms: _368  and  _369
REMARK  162  A    between atoms: _368  and  _371
REMARK  163  A    between atoms: _371  and  _372
REMARK  164  A    between atoms: _372  and  _373
REMARK  165  A    between atoms: _373  and  _374
REMARK  166  A    between atoms: _383  and  _385
REMARK  167  A    between atoms: _385  and  _386
REMARK  168  A    between atoms: _385  and  _388
REMARK  169  A    between atoms: _388  and  _389
REMARK  170  A    between atoms: _392  and  _394
REMARK  171  A    between atoms: _394  and  _395
REMARK  172  A    between atoms: _394  and  _397
REMARK  173  A    between atoms: _397  and  _398
REMARK  174  A    between atoms: _398  and  _399
REMARK  175  A    between atoms: _399  and  _400
REMARK  176  A    between atoms: _409  and  _411
REMARK  177  A    between atoms: _411  and  _412
REMARK  178  A    between atoms: _411  and  _414
REMARK  179  A    between atoms: _414  and  _415
REMARK                            x       y       z     vdW  Elec       q    Type
REMARK                         _______ _______ _______ _____ _____    ______ ____
ROOT
ATOM      1  O   HOH     1       7.499   2.056  11.408  0.00  0.00    +0.000 OA
ENDROOT
TORSDOF 0
REMARK  Name = ../refined-set-2016/3c52/3c52_pocket.pdb
REMARK  179 active torsions:
REMARK  status: ('A' for Active; 'I' for Inactive)
REMARK    1  A    between atoms: _1  and  _3
REMARK    2  A    between atoms: _3  and  _4
REMARK    3  A    between atoms: _7  and  _9
REMARK    4  A    between atoms: _9  and  _10
REMARK    5  A    between atoms: _9  and  _12
REMARK    6  A    between atoms: _12  and  _13
REMARK    7  A    between atoms: _19  and  _21
REMARK    8  A    between atoms: _21  and  _22
REMARK    9  A    between atoms: _21  and  _24
REMARK   10  A    between atoms: _24  and  _25
REMARK   11  A    between atoms: _30  and  _32
REMARK   12  A    between atoms: _32  and  _33
REMARK   13  A    between atoms: _32  and  _35
REMARK   14  A    between atoms: _35  and  _36
REMARK   15  A    between atoms: _36  and  _37
REMARK   16  A    between atoms: _42  and  _44
REMARK   17  A    between atoms: _44  and  _45
REMARK   18  A    between atoms: _44  and  _47
REMARK   19  A    between atoms: _47  and  _48
REMARK   20  A    between atoms: _50  and  _52
REMARK   21  A    between atoms: _52  and  _53
REMARK   22  A    between atoms: _52  and  _55
REMARK   23  A    between atoms: _55  and  _56
REMARK   24  A    between atoms: _61  and  _63
REMARK   25  A    between atoms: _63  and  _64
REMARK   26  A    between atoms: _63  and  _66
REMARK   27  A    between atoms: _66  and  _67
REMARK   28  A    between atoms: _70  and  _72
REMARK   29  A    between atoms: _72  and  _73
REMARK   30  A    between atoms: _72  and  _75
REMARK   31  A    between atoms: _75  and  _76
REMARK   32  A    between atoms: _79  and  _81
REMARK   33  A    between atoms: _81  and  _82
REMARK   34  A    between atoms: _81  and  _84
REMARK   35  A    between atoms: _84  and  _85
REMARK   36  A    between atoms: _89  and  ZN_421
REMARK   37  A    between atoms: _90  and  _92
REMARK   38  A    between atoms: _92  and  _93
REMARK   39  A    between atoms: _92  and  _95
REMARK   40  A    between atoms: _95  and  _96
REMARK   41  A    between atoms: _96  and  _97
REMARK   42  A    between atoms: _99  and  _101
REMARK   43  A    between atoms: _101  and  _102
REMARK   44  A    between atoms: _101  and  _104
REMARK   45  A    between atoms: _104  and  _105
REMARK   46  A    between atoms: _108  and  _110
REMARK   47  A    between atoms: _110  and  _111
REMARK   48  A    between atoms: _110  and  _113
REMARK   49  A    between atoms: _113  and  _114
REMARK   50  A    between atoms: _114  and  _115
REMARK   51  A    between atoms: _118  and  _120
REMARK   52  A    between atoms: _120  and  _121
REMARK   53  A    between atoms: _120  and  _123
REMARK   54  A    between atoms: _123  and  _124
REMARK   55  A    between atoms: _124  and  _125
REMARK   56  A    between atoms: _128  and  _130
REMARK   57  A    between atoms: _130  and  _131
REMARK   58  A    between atoms: _130  and  _133
REMARK   59  A    between atoms: _133  and  _134
REMARK   60  A    between atoms: _137  and  _139
REMARK   61  A    between atoms: _139  and  _140
REMARK   62  A    between atoms: _139  and  _142
REMARK   63  A    between atoms: _142  and  _143
REMARK   64  A    between atoms: _146  and  _148
REMARK   65  A    between atoms: _148  and  _149
REMARK   66  A    between atoms: _148  and  _151
REMARK   67  A    between atoms: _151  and  _152
REMARK   68  A    between atoms: _154  and  _156
REMARK   69  A    between atoms: _156  and  _157
REMARK   70  A    between atoms: _156  and  _159
REMARK   71  A    between atoms: _159  and  _160
REMARK   72  A    between atoms: _164  and  ZN_421
REMARK   73  A    between atoms: _165  and  _167
REMARK   74  A    between atoms: _167  and  _168
REMARK   75  A    between atoms: _170  and  _172
REMARK   76  A    between atoms: _172  and  _173
REMARK   77  A    between atoms: _176  and  _178
REMARK   78  A    between atoms: _178  and  _179
REMARK   79  A    between atoms: _178  and  _181
REMARK   80  A    between atoms: _181  and  _182
REMARK   81  A    between atoms: _188  and  _190
REMARK   82  A    between atoms: _190  and  _191
REMARK   83  A    between atoms: _190  and  _193
REMARK   84  A    between atoms: _193  and  _194
REMARK   85  A    between atoms: _194  and  _195
REMARK   86  A    between atoms: _195  and  _196
REMARK   87  A    between atoms: _196  and  _197
REMARK   88  A    between atoms: _201  and  _203
REMARK   89  A    between atoms: _203  and  _204
REMARK   90  A    between atoms: _203  and  _206
REMARK   91  A    between atoms: _209  and  _211
REMARK   92  A    between atoms: _211  and  _212
REMARK   93  A    between atoms: _211  and  _214
REMARK   94  A    between atoms: _214  and  _215
REMARK   95  A    between atoms: _218  and  _220
REMARK   96  A    between atoms: _220  and  _221
REMARK   97  A    between atoms: _220  and  _223
REMARK   98  A    between atoms: _223  and  _224
REMARK   99  A    between atoms: _225  and  ZN_421
REMARK  100  A    between atoms: _229  and  _231
REMARK  101  A    between atoms: _231  and  _232
REMARK  102  A    between atoms: _234  and  _236
REMARK  103  A    between atoms: _236  and  _237
REMARK  104  A    between atoms: _240  and  _242
REMARK  105  A    between atoms: _242  and  _243
REMARK  106  A    between atoms: _242  and  _245
REMARK  107  A    between atoms: _245  and  _246
REMARK  108  A    between atoms: _248  and  _250
REMARK  109  A    between atoms: _250  and  _251
REMARK  110  A    between atoms: _254  and  _256
REMARK  111  A    between atoms: _256  and  _257
REMARK  112  A    between atoms: _256  and  _259
REMARK  113  A    between atoms: _259  and  _260
REMARK  114  A    between atoms: _263  and  _265
REMARK  115  A    between atoms: _265  and  _266
REMARK  116  A    between atoms: _265  and  _268
REMARK  117  A    between atoms: _268  and  _269
REMARK  118  A    between atoms: _269  and  _270
REMARK  119  A    between atoms: _270  and  _271
REMARK  120  A    between atoms: _271  and  _272
REMARK  121  A    between atoms: _276  and  _278
REMARK  122  A    between atoms: _278  and  _279
REMARK  123  A    between atoms: _281  and  _283
REMARK  124  A    between atoms: _283  and  _284
REMARK  125  A    between atoms: _283  and  _286
REMARK  126  A    between atoms: _289  and  _291
REMARK  127  A    between atoms: _291  and  _292
REMARK  128  A    between atoms: _291  and  _294
REMARK  129  A    between atoms: _294  and  _295
REMARK  130  A    between atoms: _295  and  _296
REMARK  131  A    between atoms: _296  and  _297
REMARK  132  A    between atoms: _297  and  _298
REMARK  133  A    between atoms: _302  and  _304
REMARK  134  A    between atoms: _304  and  _305
REMARK  135  A    between atoms: _304  and  _307
REMARK  136  A    between atoms: _310  and  _312
REMARK  137  A    between atoms: _312  and  _313
REMARK  138  A    between atoms: _312  and  _315
REMARK  139  A    between atoms: _315  and  _316
REMARK  140  A    between atoms: _321  and  _323
REMARK  141  A    between atoms: _323  and  _324
REMARK  142  A    between atoms: _323  and  _326
REMARK  143  A    between atoms: _326  and  _327
REMARK  144  A    between atoms: _330  and  _332
REMARK  145  A    between atoms: _332  and  _333
REMARK  146  A    between atoms: _332  and  _335
REMARK  147  A    between atoms: _335  and  _336
REMARK  148  A    between atoms: _339  and  _341
REMARK  149  A    between atoms: _341  and  _342
REMARK  150  A    between atoms: _341  and  _344
REMARK  151  A    between atoms: _344  and  _345
REMARK  152  A    between atoms: _348  and  _350
REMARK  153  A    between atoms: _350  and  _351
REMARK  154  A    between atoms: _350  and  _353
REMARK  155  A    between atoms: _353  and  _354
REMARK  156  A    between atoms: _357  and  _359
REMARK  157  A    between atoms: _359  and  _360
REMARK  158  A    between atoms: _359  and  _362
REMARK  159  A    between atoms: _362  and  _363
REMARK  160  A    between atoms: _366  and  _368
REMARK  161  A    between atoms: _368  and  _369
REMARK  162  A    between atoms: _368  and  _371
REMARK  163  A    between atoms: _371  and  _372
REMARK  164  A    between atoms: _372  and  _373
REMARK  165  A    between atoms: _373  and  _374
REMARK  166  A    between atoms: _383  and  _385
REMARK  167  A    between atoms: _385  and  _386
REMARK  168  A    between atoms: _385  and  _388
REMARK  169  A    between atoms: _388  and  _389
REMARK  170  A    between atoms: _392  and  _394
REMARK  171  A    between atoms: _394  and  _395
REMARK  172  A    between atoms: _394  and  _397
REMARK  173  A    between atoms: _397  and  _398
REMARK  174  A    between atoms: _398  and  _399
REMARK  175  A    between atoms: _399  and  _400
REMARK  176  A    between atoms: _409  and  _411
REMARK  177  A    between atoms: _411  and  _412
REMARK  178  A    between atoms: _411  and  _414
REMARK  179  A    between atoms: _414  and  _415
REMARK                            x       y       z     vdW  Elec       q    Type
REMARK                         _______ _______ _______ _____ _____    ______ ____
ROOT
ATOM      1  O   HOH     1       9.979   0.556   7.554  0.00  0.00    +0.000 OA
ENDROOT
TORSDOF 0
REMARK  Name = ../refined-set-2016/3c52/3c52_pocket.pdb
REMARK  179 active torsions:
REMARK  status: ('A' for Active; 'I' for Inactive)
REMARK    1  A    between atoms: _1  and  _3
REMARK    2  A    between atoms: _3  and  _4
REMARK    3  A    between atoms: _7  and  _9
REMARK    4  A    between atoms: _9  and  _10
REMARK    5  A    between atoms: _9  and  _12
REMARK    6  A    between atoms: _12  and  _13
REMARK    7  A    between atoms: _19  and  _21
REMARK    8  A    between atoms: _21  and  _22
REMARK    9  A    between atoms: _21  and  _24
REMARK   10  A    between atoms: _24  and  _25
REMARK   11  A    between atoms: _30  and  _32
REMARK   12  A    between atoms: _32  and  _33
REMARK   13  A    between atoms: _32  and  _35
REMARK   14  A    between atoms: _35  and  _36
REMARK   15  A    between atoms: _36  and  _37
REMARK   16  A    between atoms: _42  and  _44
REMARK   17  A    between atoms: _44  and  _45
REMARK   18  A    between atoms: _44  and  _47
REMARK   19  A    between atoms: _47  and  _48
REMARK   20  A    between atoms: _50  and  _52
REMARK   21  A    between atoms: _52  and  _53
REMARK   22  A    between atoms: _52  and  _55
REMARK   23  A    between atoms: _55  and  _56
REMARK   24  A    between atoms: _61  and  _63
REMARK   25  A    between atoms: _63  and  _64
REMARK   26  A    between atoms: _63  and  _66
REMARK   27  A    between atoms: _66  and  _67
REMARK   28  A    between atoms: _70  and  _72
REMARK   29  A    between atoms: _72  and  _73
REMARK   30  A    between atoms: _72  and  _75
REMARK   31  A    between atoms: _75  and  _76
REMARK   32  A    between atoms: _79  and  _81
REMARK   33  A    between atoms: _81  and  _82
REMARK   34  A    between atoms: _81  and  _84
REMARK   35  A    between atoms: _84  and  _85
REMARK   36  A    between atoms: _89  and  ZN_421
REMARK   37  A    between atoms: _90  and  _92
REMARK   38  A    between atoms: _92  and  _93
REMARK   39  A    between atoms: _92  and  _95
REMARK   40  A    between atoms: _95  and  _96
REMARK   41  A    between atoms: _96  and  _97
REMARK   42  A    between atoms: _99  and  _101
REMARK   43  A    between atoms: _101  and  _102
REMARK   44  A    between atoms: _101  and  _104
REMARK   45  A    between atoms: _104  and  _105
REMARK   46  A    between atoms: _108  and  _110
REMARK   47  A    between atoms: _110  and  _111
REMARK   48  A    between atoms: _110  and  _113
REMARK   49  A    between atoms: _113  and  _114
REMARK   50  A    between atoms: _114  and  _115
REMARK   51  A    between atoms: _118  and  _120
REMARK   52  A    between atoms: _120  and  _121
REMARK   53  A    between atoms: _120  and  _123
REMARK   54  A    between atoms: _123  and  _124
REMARK   55  A    between atoms: _124  and  _125
REMARK   56  A    between atoms: _128  and  _130
REMARK   57  A    between atoms: _130  and  _131
REMARK   58  A    between atoms: _130  and  _133
REMARK   59  A    between atoms: _133  and  _134
REMARK   60  A    between atoms: _137  and  _139
REMARK   61  A    between atoms: _139  and  _140
REMARK   62  A    between atoms: _139  and  _142
REMARK   63  A    between atoms: _142  and  _143
REMARK   64  A    between atoms: _146  and  _148
REMARK   65  A    between atoms: _148  and  _149
REMARK   66  A    between atoms: _148  and  _151
REMARK   67  A    between atoms: _151  and  _152
REMARK   68  A    between atoms: _154  and  _156
REMARK   69  A    between atoms: _156  and  _157
REMARK   70  A    between atoms: _156  and  _159
REMARK   71  A    between atoms: _159  and  _160
REMARK   72  A    between atoms: _164  and  ZN_421
REMARK   73  A    between atoms: _165  and  _167
REMARK   74  A    between atoms: _167  and  _168
REMARK   75  A    between atoms: _170  and  _172
REMARK   76  A    between atoms: _172  and  _173
REMARK   77  A    between atoms: _176  and  _178
REMARK   78  A    between atoms: _178  and  _179
REMARK   79  A    between atoms: _178  and  _181
REMARK   80  A    between atoms: _181  and  _182
REMARK   81  A    between atoms: _188  and  _190
REMARK   82  A    between atoms: _190  and  _191
REMARK   83  A    between atoms: _190  and  _193
REMARK   84  A    between atoms: _193  and  _194
REMARK   85  A    between atoms: _194  and  _195
REMARK   86  A    between atoms: _195  and  _196
REMARK   87  A    between atoms: _196  and  _197
REMARK   88  A    between atoms: _201  and  _203
REMARK   89  A    between atoms: _203  and  _204
REMARK   90  A    between atoms: _203  and  _206
REMARK   91  A    between atoms: _209  and  _211
REMARK   92  A    between atoms: _211  and  _212
REMARK   93  A    between atoms: _211  and  _214
REMARK   94  A    between atoms: _214  and  _215
REMARK   95  A    between atoms: _218  and  _220
REMARK   96  A    between atoms: _220  and  _221
REMARK   97  A    between atoms: _220  and  _223
REMARK   98  A    between atoms: _223  and  _224
REMARK   99  A    between atoms: _225  and  ZN_421
REMARK  100  A    between atoms: _229  and  _231
REMARK  101  A    between atoms: _231  and  _232
REMARK  102  A    between atoms: _234  and  _236
REMARK  103  A    between atoms: _236  and  _237
REMARK  104  A    between atoms: _240  and  _242
REMARK  105  A    between atoms: _242  and  _243
REMARK  106  A    between atoms: _242  and  _245
REMARK  107  A    between atoms: _245  and  _246
REMARK  108  A    between atoms: _248  and  _250
REMARK  109  A    between atoms: _250  and  _251
REMARK  110  A    between atoms: _254  and  _256
REMARK  111  A    between atoms: _256  and  _257
REMARK  112  A    between atoms: _256  and  _259
REMARK  113  A    between atoms: _259  and  _260
REMARK  114  A    between atoms: _263  and  _265
REMARK  115  A    between atoms: _265  and  _266
REMARK  116  A    between atoms: _265  and  _268
REMARK  117  A    between atoms: _268  and  _269
REMARK  118  A    between atoms: _269  and  _270
REMARK  119  A    between atoms: _270  and  _271
REMARK  120  A    between atoms: _271  and  _272
REMARK  121  A    between atoms: _276  and  _278
REMARK  122  A    between atoms: _278  and  _279
REMARK  123  A    between atoms: _281  and  _283
REMARK  124  A    between atoms: _283  and  _284
REMARK  125  A    between atoms: _283  and  _286
REMARK  126  A    between atoms: _289  and  _291
REMARK  127  A    between atoms: _291  and  _292
REMARK  128  A    between atoms: _291  and  _294
REMARK  129  A    between atoms: _294  and  _295
REMARK  130  A    between atoms: _295  and  _296
REMARK  131  A    between atoms: _296  and  _297
REMARK  132  A    between atoms: _297  and  _298
REMARK  133  A    between atoms: _302  and  _304
REMARK  134  A    between atoms: _304  and  _305
REMARK  135  A    between atoms: _304  and  _307
REMARK  136  A    between atoms: _310  and  _312
REMARK  137  A    between atoms: _312  and  _313
REMARK  138  A    between atoms: _312  and  _315
REMARK  139  A    between atoms: _315  and  _316
REMARK  140  A    between atoms: _321  and  _323
REMARK  141  A    between atoms: _323  and  _324
REMARK  142  A    between atoms: _323  and  _326
REMARK  143  A    between atoms: _326  and  _327
REMARK  144  A    between atoms: _330  and  _332
REMARK  145  A    between atoms: _332  and  _333
REMARK  146  A    between atoms: _332  and  _335
REMARK  147  A    between atoms: _335  and  _336
REMARK  148  A    between atoms: _339  and  _341
REMARK  149  A    between atoms: _341  and  _342
REMARK  150  A    between atoms: _341  and  _344
REMARK  151  A    between atoms: _344  and  _345
REMARK  152  A    between atoms: _348  and  _350
REMARK  153  A    between atoms: _350  and  _351
REMARK  154  A    between atoms: _350  and  _353
REMARK  155  A    between atoms: _353  and  _354
REMARK  156  A    between atoms: _357  and  _359
REMARK  157  A    between atoms: _359  and  _360
REMARK  158  A    between atoms: _359  and  _362
REMARK  159  A    between atoms: _362  and  _363
REMARK  160  A    between atoms: _366  and  _368
REMARK  161  A    between atoms: _368  and  _369
REMARK  162  A    between atoms: _368  and  _371
REMARK  163  A    between atoms: _371  and  _372
REMARK  164  A    between atoms: _372  and  _373
REMARK  165  A    between atoms: _373  and  _374
REMARK  166  A    between atoms: _383  and  _385
REMARK  167  A    between atoms: _385  and  _386
REMARK  168  A    between atoms: _385  and  _388
REMARK  169  A    between atoms: _388  and  _389
REMARK  170  A    between atoms: _392  and  _394
REMARK  171  A    between atoms: _394  and  _395
REMARK  172  A    between atoms: _394  and  _397
REMARK  173  A    between atoms: _397  and  _398
REMARK  174  A    between atoms: _398  and  _399
REMARK  175  A    between atoms: _399  and  _400
REMARK  176  A    between atoms: _409  and  _411
REMARK  177  A    between atoms: _411  and  _412
REMARK  178  A    between atoms: _411  and  _414
REMARK  179  A    between atoms: _414  and  _415
REMARK                            x       y       z     vdW  Elec       q    Type
REMARK                         _______ _______ _______ _____ _____    ______ ____
ROOT
ATOM      1  O   HOH     1       6.529   7.670   7.589  0.00  0.00    +0.000 OA
ENDROOT
TORSDOF 0
