REMARK  Name = ../refined-set-2016/1px4/1px4_pocket.pdb
REMARK  188 active torsions:
REMARK  status: ('A' for Active; 'I' for Inactive)
REMARK    1  A    between atoms: _1  and  _3
REMARK    2  A    between atoms: _3  and  _4
REMARK    3  A    between atoms: _3  and  _6
REMARK    4  A    between atoms: _6  and  _7
REMARK    5  A    between atoms: _12  and  _13
REMARK    6  A    between atoms: _15  and  _17
REMARK    7  A    between atoms: _17  and  _18
REMARK    8  A    between atoms: _17  and  _20
REMARK    9  A    between atoms: _20  and  _21
REMARK   10  A    between atoms: _26  and  _28
REMARK   11  A    between atoms: _28  and  _29
REMARK   12  A    between atoms: _28  and  _31
REMARK   13  A    between atoms: _34  and  _36
REMARK   14  A    between atoms: _36  and  _37
REMARK   15  A    between atoms: _36  and  _39
REMARK   16  A    between atoms: _39  and  _40
REMARK   17  A    between atoms: _43  and  _45
REMARK   18  A    between atoms: _45  and  _46
REMARK   19  A    between atoms: _45  and  _48
REMARK   20  A    between atoms: _48  and  _49
REMARK   21  A    between atoms: _49  and  _50
REMARK   22  A    between atoms: _55  and  _57
REMARK   23  A    between atoms: _57  and  _58
REMARK   24  A    between atoms: _57  and  _60
REMARK   25  A    between atoms: _60  and  _61
REMARK   26  A    between atoms: _64  and  _66
REMARK   27  A    between atoms: _66  and  _67
REMARK   28  A    between atoms: _66  and  _69
REMARK   29  A    between atoms: _69  and  _70
REMARK   30  A    between atoms: _70  and  _71
REMARK   31  A    between atoms: _73  and  _75
REMARK   32  A    between atoms: _75  and  _76
REMARK   33  A    between atoms: _75  and  _78
REMARK   34  A    between atoms: _78  and  _79
REMARK   35  A    between atoms: _84  and  _86
REMARK   36  A    between atoms: _86  and  _87
REMARK   37  A    between atoms: _86  and  _89
REMARK   38  A    between atoms: _89  and  _90
REMARK   39  A    between atoms: _95  and  _97
REMARK   40  A    between atoms: _97  and  _98
REMARK   41  A    between atoms: _97  and  _100
REMARK   42  A    between atoms: _100  and  _101
REMARK   43  A    between atoms: _101  and  _102
REMARK   44  A    between atoms: _102  and  _103
REMARK   45  A    between atoms: _112  and  _114
REMARK   46  A    between atoms: _114  and  _115
REMARK   47  A    between atoms: _114  and  _117
REMARK   48  A    between atoms: _117  and  _118
REMARK   49  A    between atoms: _120  and  _122
REMARK   50  A    between atoms: _122  and  _123
REMARK   51  A    between atoms: _122  and  _125
REMARK   52  A    between atoms: _125  and  _126
REMARK   53  A    between atoms: _131  and  _133
REMARK   54  A    between atoms: _133  and  _134
REMARK   55  A    between atoms: _133  and  _136
REMARK   56  A    between atoms: _136  and  _137
REMARK   57  A    between atoms: _137  and  _138
REMARK   58  A    between atoms: _141  and  _143
REMARK   59  A    between atoms: _143  and  _144
REMARK   60  A    between atoms: _143  and  _146
REMARK   61  A    between atoms: _146  and  _147
REMARK   62  A    between atoms: _152  and  _154
REMARK   63  A    between atoms: _154  and  _155
REMARK   64  A    between atoms: _154  and  _157
REMARK   65  A    between atoms: _157  and  _158
REMARK   66  A    between atoms: _158  and  _159
REMARK   67  A    between atoms: _161  and  _163
REMARK   68  A    between atoms: _163  and  _164
REMARK   69  A    between atoms: _163  and  _166
REMARK   70  A    between atoms: _166  and  _167
REMARK   71  A    between atoms: _172  and  _174
REMARK   72  A    between atoms: _174  and  _175
REMARK   73  A    between atoms: _174  and  _177
REMARK   74  A    between atoms: _177  and  _178
REMARK   75  A    between atoms: _178  and  _179
REMARK   76  A    between atoms: _179  and  _180
REMARK   77  A    between atoms: _180  and  MG_450
REMARK   78  A    between atoms: _182  and  _184
REMARK   79  A    between atoms: _184  and  _185
REMARK   80  A    between atoms: _184  and  _187
REMARK   81  A    between atoms: _187  and  _188
REMARK   82  A    between atoms: _188  and  _189
REMARK   83  A    between atoms: _192  and  _194
REMARK   84  A    between atoms: _194  and  _195
REMARK   85  A    between atoms: _194  and  _197
REMARK   86  A    between atoms: _197  and  _198
REMARK   87  A    between atoms: _198  and  _199
REMARK   88  A    between atoms: _201  and  _203
REMARK   89  A    between atoms: _203  and  _204
REMARK   90  A    between atoms: _203  and  _206
REMARK   91  A    between atoms: _206  and  _207
REMARK   92  A    between atoms: _212  and  _213
REMARK   93  A    between atoms: _215  and  _217
REMARK   94  A    between atoms: _217  and  _218
REMARK   95  A    between atoms: _217  and  _220
REMARK   96  A    between atoms: _220  and  _221
REMARK   97  A    between atoms: _221  and  _222
REMARK   98  A    between atoms: _222  and  _223
REMARK   99  A    between atoms: _223  and  _224
REMARK  100  A    between atoms: _228  and  _230
REMARK  101  A    between atoms: _230  and  _231
REMARK  102  A    between atoms: _230  and  _233
REMARK  103  A    between atoms: _235  and  _237
REMARK  104  A    between atoms: _237  and  _238
REMARK  105  A    between atoms: _237  and  _240
REMARK  106  A    between atoms: _240  and  _241
REMARK  107  A    between atoms: _241  and  _242
REMARK  108  A    between atoms: _245  and  _247
REMARK  109  A    between atoms: _247  and  _248
REMARK  110  A    between atoms: _247  and  _250
REMARK  111  A    between atoms: _250  and  _251
REMARK  112  A    between atoms: _256  and  _258
REMARK  113  A    between atoms: _258  and  _259
REMARK  114  A    between atoms: _262  and  _264
REMARK  115  A    between atoms: _264  and  _265
REMARK  116  A    between atoms: _264  and  _267
REMARK  117  A    between atoms: _267  and  _268
REMARK  118  A    between atoms: _268  and  _269
REMARK  119  A    between atoms: _271  and  _273
REMARK  120  A    between atoms: _273  and  _274
REMARK  121  A    between atoms: _273  and  _276
REMARK  122  A    between atoms: _276  and  _277
REMARK  123  A    between atoms: _287  and  _289
REMARK  124  A    between atoms: _289  and  _290
REMARK  125  A    between atoms: _289  and  _292
REMARK  126  A    between atoms: _292  and  _293
REMARK  127  A    between atoms: _296  and  _298
REMARK  128  A    between atoms: _298  and  _299
REMARK  129  A    between atoms: _298  and  _301
REMARK  130  A    between atoms: _301  and  _302
REMARK  131  A    between atoms: _302  and  _303
REMARK  132  A    between atoms: _308  and  _310
REMARK  133  A    between atoms: _310  and  _311
REMARK  134  A    between atoms: _310  and  _313
REMARK  135  A    between atoms: _313  and  _314
REMARK  136  A    between atoms: _317  and  _319
REMARK  137  A    between atoms: _319  and  _320
REMARK  138  A    between atoms: _319  and  _322
REMARK  139  A    between atoms: _322  and  _323
REMARK  140  A    between atoms: _323  and  _324
REMARK  141  A    between atoms: _329  and  _331
REMARK  142  A    between atoms: _331  and  _332
REMARK  143  A    between atoms: _331  and  _334
REMARK  144  A    between atoms: _334  and  _335
REMARK  145  A    between atoms: _341  and  _343
REMARK  146  A    between atoms: _343  and  _344
REMARK  147  A    between atoms: _343  and  _346
REMARK  148  A    between atoms: _348  and  _350
REMARK  149  A    between atoms: _350  and  _351
REMARK  150  A    between atoms: _350  and  _353
REMARK  151  A    between atoms: _353  and  _354
REMARK  152  A    between atoms: _354  and  _355
REMARK  153  A    between atoms: _357  and  _359
REMARK  154  A    between atoms: _359  and  _360
REMARK  155  A    between atoms: _359  and  _362
REMARK  156  A    between atoms: _362  and  _363
REMARK  157  A    between atoms: _368  and  _370
REMARK  158  A    between atoms: _370  and  _371
REMARK  159  A    between atoms: _374  and  _376
REMARK  160  A    between atoms: _376  and  _377
REMARK  161  A    between atoms: _376  and  _379
REMARK  162  A    between atoms: _382  and  _384
REMARK  163  A    between atoms: _384  and  _385
REMARK  164  A    between atoms: _384  and  _387
REMARK  165  A    between atoms: _387  and  _388
REMARK  166  A    between atoms: _391  and  _393
REMARK  167  A    between atoms: _393  and  _394
REMARK  168  A    between atoms: _393  and  _396
REMARK  169  A    between atoms: _396  and  _397
REMARK  170  A    between atoms: _399  and  _401
REMARK  171  A    between atoms: _401  and  _402
REMARK  172  A    between atoms: _401  and  _404
REMARK  173  A    between atoms: _404  and  _405
REMARK  174  A    between atoms: _415  and  _417
REMARK  175  A    between atoms: _417  and  _418
REMARK  176  A    between atoms: _417  and  _420
REMARK  177  A    between atoms: _420  and  _421
REMARK  178  A    between atoms: _423  and  _425
REMARK  179  A    between atoms: _425  and  _426
REMARK  180  A    between atoms: _425  and  _428
REMARK  181  A    between atoms: _428  and  _429
REMARK  182  A    between atoms: _429  and  _430
REMARK  183  A    between atoms: _433  and  _435
REMARK  184  A    between atoms: _435  and  _436
REMARK  185  A    between atoms: _435  and  _438
REMARK  186  A    between atoms: _438  and  _439
REMARK  187  A    between atoms: _439  and  _440
REMARK  188  A    between atoms: _440  and  _441
REMARK                            x       y       z     vdW  Elec       q    Type
REMARK                         _______ _______ _______ _____ _____    ______ ____
ROOT
ATOM      1  CG  TYR A   1     -11.485 -39.657 -32.191  0.00  0.00    -0.020 A 
ATOM      2  CD2 TYR A   1     -10.611 -38.995 -31.317  0.00  0.00    -0.001 A 
ATOM      3  CE2 TYR A   1     -10.736 -37.631 -31.025  0.00  0.00    +0.036 A 
ATOM      4  CZ  TYR A   1     -11.816 -36.930 -31.559  0.00  0.00    +0.134 A 
ATOM      5  CE1 TYR A   1     -12.701 -37.581 -32.427  0.00  0.00    +0.036 A 
ATOM      6  CD1 TYR A   1     -12.543 -38.931 -32.736  0.00  0.00    -0.001 A 
ENDROOT
BRANCH   4   7
ATOM      7  OH  TYR A   1     -11.954 -35.572 -31.311  0.00  0.00    -0.506 OA
ATOM      8  HH  TYR A   1     -11.250 -35.280 -30.680  0.00  0.00    +0.292 HD
ENDBRANCH   4   7
BRANCH   1   9
ATOM      9  CB  TYR A   1     -11.332 -41.151 -32.432  0.00  0.00    +0.051 C 
BRANCH   9  10
ATOM     10  CA  TYR A   1     -11.466 -41.833 -31.037  0.00  0.00    +0.137 C 
BRANCH  10  11
ATOM     11  N   TYR A   1     -11.482 -43.301 -30.941  0.00  0.00    -0.239 NA
ATOM     12  H   TYR A   1     -12.175 -43.851 -31.488  0.00  0.00    +0.142 HD
ENDBRANCH  10  11
BRANCH  10  13
ATOM     13  C   TYR A   1     -12.669 -41.233 -30.336  0.00  0.00    +0.224 C 
ATOM     14  O   TYR A   1     -13.769 -41.171 -30.925  0.00  0.00    -0.287 OA
ENDBRANCH  10  13
ENDBRANCH   9  10
ENDBRANCH   1   9
TORSDOF 5
REMARK  Name = ../refined-set-2016/1px4/1px4_pocket.pdb
REMARK  188 active torsions:
REMARK  status: ('A' for Active; 'I' for Inactive)
REMARK    1  A    between atoms: _1  and  _3
REMARK    2  A    between atoms: _3  and  _4
REMARK    3  A    between atoms: _3  and  _6
REMARK    4  A    between atoms: _6  and  _7
REMARK    5  A    between atoms: _12  and  _13
REMARK    6  A    between atoms: _15  and  _17
REMARK    7  A    between atoms: _17  and  _18
REMARK    8  A    between atoms: _17  and  _20
REMARK    9  A    between atoms: _20  and  _21
REMARK   10  A    between atoms: _26  and  _28
REMARK   11  A    between atoms: _28  and  _29
REMARK   12  A    between atoms: _28  and  _31
REMARK   13  A    between atoms: _34  and  _36
REMARK   14  A    between atoms: _36  and  _37
REMARK   15  A    between atoms: _36  and  _39
REMARK   16  A    between atoms: _39  and  _40
REMARK   17  A    between atoms: _43  and  _45
REMARK   18  A    between atoms: _45  and  _46
REMARK   19  A    between atoms: _45  and  _48
REMARK   20  A    between atoms: _48  and  _49
REMARK   21  A    between atoms: _49  and  _50
REMARK   22  A    between atoms: _55  and  _57
REMARK   23  A    between atoms: _57  and  _58
REMARK   24  A    between atoms: _57  and  _60
REMARK   25  A    between atoms: _60  and  _61
REMARK   26  A    between atoms: _64  and  _66
REMARK   27  A    between atoms: _66  and  _67
REMARK   28  A    between atoms: _66  and  _69
REMARK   29  A    between atoms: _69  and  _70
REMARK   30  A    between atoms: _70  and  _71
REMARK   31  A    between atoms: _73  and  _75
REMARK   32  A    between atoms: _75  and  _76
REMARK   33  A    between atoms: _75  and  _78
REMARK   34  A    between atoms: _78  and  _79
REMARK   35  A    between atoms: _84  and  _86
REMARK   36  A    between atoms: _86  and  _87
REMARK   37  A    between atoms: _86  and  _89
REMARK   38  A    between atoms: _89  and  _90
REMARK   39  A    between atoms: _95  and  _97
REMARK   40  A    between atoms: _97  and  _98
REMARK   41  A    between atoms: _97  and  _100
REMARK   42  A    between atoms: _100  and  _101
REMARK   43  A    between atoms: _101  and  _102
REMARK   44  A    between atoms: _102  and  _103
REMARK   45  A    between atoms: _112  and  _114
REMARK   46  A    between atoms: _114  and  _115
REMARK   47  A    between atoms: _114  and  _117
REMARK   48  A    between atoms: _117  and  _118
REMARK   49  A    between atoms: _120  and  _122
REMARK   50  A    between atoms: _122  and  _123
REMARK   51  A    between atoms: _122  and  _125
REMARK   52  A    between atoms: _125  and  _126
REMARK   53  A    between atoms: _131  and  _133
REMARK   54  A    between atoms: _133  and  _134
REMARK   55  A    between atoms: _133  and  _136
REMARK   56  A    between atoms: _136  and  _137
REMARK   57  A    between atoms: _137  and  _138
REMARK   58  A    between atoms: _141  and  _143
REMARK   59  A    between atoms: _143  and  _144
REMARK   60  A    between atoms: _143  and  _146
REMARK   61  A    between atoms: _146  and  _147
REMARK   62  A    between atoms: _152  and  _154
REMARK   63  A    between atoms: _154  and  _155
REMARK   64  A    between atoms: _154  and  _157
REMARK   65  A    between atoms: _157  and  _158
REMARK   66  A    between atoms: _158  and  _159
REMARK   67  A    between atoms: _161  and  _163
REMARK   68  A    between atoms: _163  and  _164
REMARK   69  A    between atoms: _163  and  _166
REMARK   70  A    between atoms: _166  and  _167
REMARK   71  A    between atoms: _172  and  _174
REMARK   72  A    between atoms: _174  and  _175
REMARK   73  A    between atoms: _174  and  _177
REMARK   74  A    between atoms: _177  and  _178
REMARK   75  A    between atoms: _178  and  _179
REMARK   76  A    between atoms: _179  and  _180
REMARK   77  A    between atoms: _180  and  MG_450
REMARK   78  A    between atoms: _182  and  _184
REMARK   79  A    between atoms: _184  and  _185
REMARK   80  A    between atoms: _184  and  _187
REMARK   81  A    between atoms: _187  and  _188
REMARK   82  A    between atoms: _188  and  _189
REMARK   83  A    between atoms: _192  and  _194
REMARK   84  A    between atoms: _194  and  _195
REMARK   85  A    between atoms: _194  and  _197
REMARK   86  A    between atoms: _197  and  _198
REMARK   87  A    between atoms: _198  and  _199
REMARK   88  A    between atoms: _201  and  _203
REMARK   89  A    between atoms: _203  and  _204
REMARK   90  A    between atoms: _203  and  _206
REMARK   91  A    between atoms: _206  and  _207
REMARK   92  A    between atoms: _212  and  _213
REMARK   93  A    between atoms: _215  and  _217
REMARK   94  A    between atoms: _217  and  _218
REMARK   95  A    between atoms: _217  and  _220
REMARK   96  A    between atoms: _220  and  _221
REMARK   97  A    between atoms: _221  and  _222
REMARK   98  A    between atoms: _222  and  _223
REMARK   99  A    between atoms: _223  and  _224
REMARK  100  A    between atoms: _228  and  _230
REMARK  101  A    between atoms: _230  and  _231
REMARK  102  A    between atoms: _230  and  _233
REMARK  103  A    between atoms: _235  and  _237
REMARK  104  A    between atoms: _237  and  _238
REMARK  105  A    between atoms: _237  and  _240
REMARK  106  A    between atoms: _240  and  _241
REMARK  107  A    between atoms: _241  and  _242
REMARK  108  A    between atoms: _245  and  _247
REMARK  109  A    between atoms: _247  and  _248
REMARK  110  A    between atoms: _247  and  _250
REMARK  111  A    between atoms: _250  and  _251
REMARK  112  A    between atoms: _256  and  _258
REMARK  113  A    between atoms: _258  and  _259
REMARK  114  A    between atoms: _262  and  _264
REMARK  115  A    between atoms: _264  and  _265
REMARK  116  A    between atoms: _264  and  _267
REMARK  117  A    between atoms: _267  and  _268
REMARK  118  A    between atoms: _268  and  _269
REMARK  119  A    between atoms: _271  and  _273
REMARK  120  A    between atoms: _273  and  _274
REMARK  121  A    between atoms: _273  and  _276
REMARK  122  A    between atoms: _276  and  _277
REMARK  123  A    between atoms: _287  and  _289
REMARK  124  A    between atoms: _289  and  _290
REMARK  125  A    between atoms: _289  and  _292
REMARK  126  A    between atoms: _292  and  _293
REMARK  127  A    between atoms: _296  and  _298
REMARK  128  A    between atoms: _298  and  _299
REMARK  129  A    between atoms: _298  and  _301
REMARK  130  A    between atoms: _301  and  _302
REMARK  131  A    between atoms: _302  and  _303
REMARK  132  A    between atoms: _308  and  _310
REMARK  133  A    between atoms: _310  and  _311
REMARK  134  A    between atoms: _310  and  _313
REMARK  135  A    between atoms: _313  and  _314
REMARK  136  A    between atoms: _317  and  _319
REMARK  137  A    between atoms: _319  and  _320
REMARK  138  A    between atoms: _319  and  _322
REMARK  139  A    between atoms: _322  and  _323
REMARK  140  A    between atoms: _323  and  _324
REMARK  141  A    between atoms: _329  and  _331
REMARK  142  A    between atoms: _331  and  _332
REMARK  143  A    between atoms: _331  and  _334
REMARK  144  A    between atoms: _334  and  _335
REMARK  145  A    between atoms: _341  and  _343
REMARK  146  A    between atoms: _343  and  _344
REMARK  147  A    between atoms: _343  and  _346
REMARK  148  A    between atoms: _348  and  _350
REMARK  149  A    between atoms: _350  and  _351
REMARK  150  A    between atoms: _350  and  _353
REMARK  151  A    between atoms: _353  and  _354
REMARK  152  A    between atoms: _354  and  _355
REMARK  153  A    between atoms: _357  and  _359
REMARK  154  A    between atoms: _359  and  _360
REMARK  155  A    between atoms: _359  and  _362
REMARK  156  A    between atoms: _362  and  _363
REMARK  157  A    between atoms: _368  and  _370
REMARK  158  A    between atoms: _370  and  _371
REMARK  159  A    between atoms: _374  and  _376
REMARK  160  A    between atoms: _376  and  _377
REMARK  161  A    between atoms: _376  and  _379
REMARK  162  A    between atoms: _382  and  _384
REMARK  163  A    between atoms: _384  and  _385
REMARK  164  A    between atoms: _384  and  _387
REMARK  165  A    between atoms: _387  and  _388
REMARK  166  A    between atoms: _391  and  _393
REMARK  167  A    between atoms: _393  and  _394
REMARK  168  A    between atoms: _393  and  _396
REMARK  169  A    between atoms: _396  and  _397
REMARK  170  A    between atoms: _399  and  _401
REMARK  171  A    between atoms: _401  and  _402
REMARK  172  A    between atoms: _401  and  _404
REMARK  173  A    between atoms: _404  and  _405
REMARK  174  A    between atoms: _415  and  _417
REMARK  175  A    between atoms: _417  and  _418
REMARK  176  A    between atoms: _417  and  _420
REMARK  177  A    between atoms: _420  and  _421
REMARK  178  A    between atoms: _423  and  _425
REMARK  179  A    between atoms: _425  and  _426
REMARK  180  A    between atoms: _425  and  _428
REMARK  181  A    between atoms: _428  and  _429
REMARK  182  A    between atoms: _429  and  _430
REMARK  183  A    between atoms: _433  and  _435
REMARK  184  A    between atoms: _435  and  _436
REMARK  185  A    between atoms: _435  and  _438
REMARK  186  A    between atoms: _438  and  _439
REMARK  187  A    between atoms: _439  and  _440
REMARK  188  A    between atoms: _440  and  _441
REMARK                            x       y       z     vdW  Elec       q    Type
REMARK                         _______ _______ _______ _____ _____    ______ ____
ROOT
ATOM      1  C   ASN A   1     -13.467 -36.122 -26.010  0.00  0.00    +0.239 C 
ATOM      2  O   ASN A   1     -12.509 -36.305 -25.189  0.00  0.00    -0.274 OA
ATOM      3  N   VAL A   2     -14.698 -35.728 -25.618  0.00  0.00    -0.298 N 
ATOM      4  H   VAL A   2     -15.460 -35.596 -26.314  0.00  0.00    +0.150 HD
ENDROOT
BRANCH   1   5
ATOM      5  CA  ASN A   1     -13.263 -36.314 -27.492  0.00  0.00    +0.154 C 
BRANCH   5   6
ATOM      6  N   ASN A   1     -13.733 -37.635 -27.868  0.00  0.00    -0.238 NA
ATOM      7  H   ASN A   1     -14.731 -37.753 -28.137  0.00  0.00    +0.142 HD
ENDBRANCH   5   6
BRANCH   5   8
ATOM      8  CB  ASN A   1     -14.056 -35.245 -28.277  0.00  0.00    +0.111 C 
BRANCH   8   9
ATOM      9  CG  ASN A   1     -13.705 -33.841 -27.806  0.00  0.00    +0.221 C 
ATOM     10  OD1 ASN A   1     -12.854 -33.640 -26.901  0.00  0.00    -0.275 OA
ATOM     11  ND2 ASN A   1     -14.295 -32.836 -28.465  0.00  0.00    -0.329 N 
ATOM     12 HD21 ASN A   1     -14.054 -31.851 -28.235  0.00  0.00    +0.145 HD
ATOM     13 HD22 ASN A   1     -14.994 -33.040 -29.207  0.00  0.00    +0.145 HD
ENDBRANCH   8   9
ENDBRANCH   5   8
ENDBRANCH   1   5
BRANCH   3  14
ATOM     14  CA  VAL A   2     -14.944 -35.485 -24.161  0.00  0.00    +0.137 C 
BRANCH  14  15
ATOM     15  CB  VAL A   2     -15.991 -34.395 -23.976  0.00  0.00    +0.026 C 
ATOM     16  CG2 VAL A   2     -16.310 -34.207 -22.478  0.00  0.00    +0.002 C 
ATOM     17  CG1 VAL A   2     -15.488 -33.111 -24.675  0.00  0.00    +0.002 C 
ENDBRANCH  14  15
BRANCH  14  18
ATOM     18  C   VAL A   2     -15.358 -36.696 -23.299  0.00  0.00    +0.227 C 
ATOM     19  O   VAL A   2     -14.868 -36.966 -22.186  0.00  0.00    -0.286 OA
ENDBRANCH  14  18
ENDBRANCH   3  14
TORSDOF 7
REMARK  Name = ../refined-set-2016/1px4/1px4_pocket.pdb
REMARK  188 active torsions:
REMARK  status: ('A' for Active; 'I' for Inactive)
REMARK    1  A    between atoms: _1  and  _3
REMARK    2  A    between atoms: _3  and  _4
REMARK    3  A    between atoms: _3  and  _6
REMARK    4  A    between atoms: _6  and  _7
REMARK    5  A    between atoms: _12  and  _13
REMARK    6  A    between atoms: _15  and  _17
REMARK    7  A    between atoms: _17  and  _18
REMARK    8  A    between atoms: _17  and  _20
REMARK    9  A    between atoms: _20  and  _21
REMARK   10  A    between atoms: _26  and  _28
REMARK   11  A    between atoms: _28  and  _29
REMARK   12  A    between atoms: _28  and  _31
REMARK   13  A    between atoms: _34  and  _36
REMARK   14  A    between atoms: _36  and  _37
REMARK   15  A    between atoms: _36  and  _39
REMARK   16  A    between atoms: _39  and  _40
REMARK   17  A    between atoms: _43  and  _45
REMARK   18  A    between atoms: _45  and  _46
REMARK   19  A    between atoms: _45  and  _48
REMARK   20  A    between atoms: _48  and  _49
REMARK   21  A    between atoms: _49  and  _50
REMARK   22  A    between atoms: _55  and  _57
REMARK   23  A    between atoms: _57  and  _58
REMARK   24  A    between atoms: _57  and  _60
REMARK   25  A    between atoms: _60  and  _61
REMARK   26  A    between atoms: _64  and  _66
REMARK   27  A    between atoms: _66  and  _67
REMARK   28  A    between atoms: _66  and  _69
REMARK   29  A    between atoms: _69  and  _70
REMARK   30  A    between atoms: _70  and  _71
REMARK   31  A    between atoms: _73  and  _75
REMARK   32  A    between atoms: _75  and  _76
REMARK   33  A    between atoms: _75  and  _78
REMARK   34  A    between atoms: _78  and  _79
REMARK   35  A    between atoms: _84  and  _86
REMARK   36  A    between atoms: _86  and  _87
REMARK   37  A    between atoms: _86  and  _89
REMARK   38  A    between atoms: _89  and  _90
REMARK   39  A    between atoms: _95  and  _97
REMARK   40  A    between atoms: _97  and  _98
REMARK   41  A    between atoms: _97  and  _100
REMARK   42  A    between atoms: _100  and  _101
REMARK   43  A    between atoms: _101  and  _102
REMARK   44  A    between atoms: _102  and  _103
REMARK   45  A    between atoms: _112  and  _114
REMARK   46  A    between atoms: _114  and  _115
REMARK   47  A    between atoms: _114  and  _117
REMARK   48  A    between atoms: _117  and  _118
REMARK   49  A    between atoms: _120  and  _122
REMARK   50  A    between atoms: _122  and  _123
REMARK   51  A    between atoms: _122  and  _125
REMARK   52  A    between atoms: _125  and  _126
REMARK   53  A    between atoms: _131  and  _133
REMARK   54  A    between atoms: _133  and  _134
REMARK   55  A    between atoms: _133  and  _136
REMARK   56  A    between atoms: _136  and  _137
REMARK   57  A    between atoms: _137  and  _138
REMARK   58  A    between atoms: _141  and  _143
REMARK   59  A    between atoms: _143  and  _144
REMARK   60  A    between atoms: _143  and  _146
REMARK   61  A    between atoms: _146  and  _147
REMARK   62  A    between atoms: _152  and  _154
REMARK   63  A    between atoms: _154  and  _155
REMARK   64  A    between atoms: _154  and  _157
REMARK   65  A    between atoms: _157  and  _158
REMARK   66  A    between atoms: _158  and  _159
REMARK   67  A    between atoms: _161  and  _163
REMARK   68  A    between atoms: _163  and  _164
REMARK   69  A    between atoms: _163  and  _166
REMARK   70  A    between atoms: _166  and  _167
REMARK   71  A    between atoms: _172  and  _174
REMARK   72  A    between atoms: _174  and  _175
REMARK   73  A    between atoms: _174  and  _177
REMARK   74  A    between atoms: _177  and  _178
REMARK   75  A    between atoms: _178  and  _179
REMARK   76  A    between atoms: _179  and  _180
REMARK   77  A    between atoms: _180  and  MG_450
REMARK   78  A    between atoms: _182  and  _184
REMARK   79  A    between atoms: _184  and  _185
REMARK   80  A    between atoms: _184  and  _187
REMARK   81  A    between atoms: _187  and  _188
REMARK   82  A    between atoms: _188  and  _189
REMARK   83  A    between atoms: _192  and  _194
REMARK   84  A    between atoms: _194  and  _195
REMARK   85  A    between atoms: _194  and  _197
REMARK   86  A    between atoms: _197  and  _198
REMARK   87  A    between atoms: _198  and  _199
REMARK   88  A    between atoms: _201  and  _203
REMARK   89  A    between atoms: _203  and  _204
REMARK   90  A    between atoms: _203  and  _206
REMARK   91  A    between atoms: _206  and  _207
REMARK   92  A    between atoms: _212  and  _213
REMARK   93  A    between atoms: _215  and  _217
REMARK   94  A    between atoms: _217  and  _218
REMARK   95  A    between atoms: _217  and  _220
REMARK   96  A    between atoms: _220  and  _221
REMARK   97  A    between atoms: _221  and  _222
REMARK   98  A    between atoms: _222  and  _223
REMARK   99  A    between atoms: _223  and  _224
REMARK  100  A    between atoms: _228  and  _230
REMARK  101  A    between atoms: _230  and  _231
REMARK  102  A    between atoms: _230  and  _233
REMARK  103  A    between atoms: _235  and  _237
REMARK  104  A    between atoms: _237  and  _238
REMARK  105  A    between atoms: _237  and  _240
REMARK  106  A    between atoms: _240  and  _241
REMARK  107  A    between atoms: _241  and  _242
REMARK  108  A    between atoms: _245  and  _247
REMARK  109  A    between atoms: _247  and  _248
REMARK  110  A    between atoms: _247  and  _250
REMARK  111  A    between atoms: _250  and  _251
REMARK  112  A    between atoms: _256  and  _258
REMARK  113  A    between atoms: _258  and  _259
REMARK  114  A    between atoms: _262  and  _264
REMARK  115  A    between atoms: _264  and  _265
REMARK  116  A    between atoms: _264  and  _267
REMARK  117  A    between atoms: _267  and  _268
REMARK  118  A    between atoms: _268  and  _269
REMARK  119  A    between atoms: _271  and  _273
REMARK  120  A    between atoms: _273  and  _274
REMARK  121  A    between atoms: _273  and  _276
REMARK  122  A    between atoms: _276  and  _277
REMARK  123  A    between atoms: _287  and  _289
REMARK  124  A    between atoms: _289  and  _290
REMARK  125  A    between atoms: _289  and  _292
REMARK  126  A    between atoms: _292  and  _293
REMARK  127  A    between atoms: _296  and  _298
REMARK  128  A    between atoms: _298  and  _299
REMARK  129  A    between atoms: _298  and  _301
REMARK  130  A    between atoms: _301  and  _302
REMARK  131  A    between atoms: _302  and  _303
REMARK  132  A    between atoms: _308  and  _310
REMARK  133  A    between atoms: _310  and  _311
REMARK  134  A    between atoms: _310  and  _313
REMARK  135  A    between atoms: _313  and  _314
REMARK  136  A    between atoms: _317  and  _319
REMARK  137  A    between atoms: _319  and  _320
REMARK  138  A    between atoms: _319  and  _322
REMARK  139  A    between atoms: _322  and  _323
REMARK  140  A    between atoms: _323  and  _324
REMARK  141  A    between atoms: _329  and  _331
REMARK  142  A    between atoms: _331  and  _332
REMARK  143  A    between atoms: _331  and  _334
REMARK  144  A    between atoms: _334  and  _335
REMARK  145  A    between atoms: _341  and  _343
REMARK  146  A    between atoms: _343  and  _344
REMARK  147  A    between atoms: _343  and  _346
REMARK  148  A    between atoms: _348  and  _350
REMARK  149  A    between atoms: _350  and  _351
REMARK  150  A    between atoms: _350  and  _353
REMARK  151  A    between atoms: _353  and  _354
REMARK  152  A    between atoms: _354  and  _355
REMARK  153  A    between atoms: _357  and  _359
REMARK  154  A    between atoms: _359  and  _360
REMARK  155  A    between atoms: _359  and  _362
REMARK  156  A    between atoms: _362  and  _363
REMARK  157  A    between atoms: _368  and  _370
REMARK  158  A    between atoms: _370  and  _371
REMARK  159  A    between atoms: _374  and  _376
REMARK  160  A    between atoms: _376  and  _377
REMARK  161  A    between atoms: _376  and  _379
REMARK  162  A    between atoms: _382  and  _384
REMARK  163  A    between atoms: _384  and  _385
REMARK  164  A    between atoms: _384  and  _387
REMARK  165  A    between atoms: _387  and  _388
REMARK  166  A    between atoms: _391  and  _393
REMARK  167  A    between atoms: _393  and  _394
REMARK  168  A    between atoms: _393  and  _396
REMARK  169  A    between atoms: _396  and  _397
REMARK  170  A    between atoms: _399  and  _401
REMARK  171  A    between atoms: _401  and  _402
REMARK  172  A    between atoms: _401  and  _404
REMARK  173  A    between atoms: _404  and  _405
REMARK  174  A    between atoms: _415  and  _417
REMARK  175  A    between atoms: _417  and  _418
REMARK  176  A    between atoms: _417  and  _420
REMARK  177  A    between atoms: _420  and  _421
REMARK  178  A    between atoms: _423  and  _425
REMARK  179  A    between atoms: _425  and  _426
REMARK  180  A    between atoms: _425  and  _428
REMARK  181  A    between atoms: _428  and  _429
REMARK  182  A    between atoms: _429  and  _430
REMARK  183  A    between atoms: _433  and  _435
REMARK  184  A    between atoms: _435  and  _436
REMARK  185  A    between atoms: _435  and  _438
REMARK  186  A    between atoms: _438  and  _439
REMARK  187  A    between atoms: _439  and  _440
REMARK  188  A    between atoms: _440  and  _441
REMARK                            x       y       z     vdW  Elec       q    Type
REMARK                         _______ _______ _______ _____ _____    ______ ____
ROOT
ATOM      1  C   GLN A   2      -8.052 -36.223 -24.971  0.00  0.00    +0.241 C 
ATOM      2  O   GLN A   2      -8.242 -37.411 -25.226  0.00  0.00    -0.273 OA
ATOM      3  N   ASP A   3      -8.410 -35.211 -25.770  0.00  0.00    -0.297 N 
ATOM      4  H   ASP A   3      -8.192 -34.254 -25.426  0.00  0.00    +0.150 HD
ENDROOT
BRANCH   3   5
ATOM      5  CA  ASP A   3      -9.073 -35.295 -27.071  0.00  0.00    +0.160 C 
BRANCH   5   6
ATOM      6  C   ASP A   3      -8.081 -35.804 -28.065  0.00  0.00    +0.241 C 
ATOM      7  N   MET A   4      -8.023 -37.165 -28.136  0.00  0.00    -0.298 N 
ATOM      8  H   MET A   4      -8.641 -37.748 -27.536  0.00  0.00    +0.150 HD
ATOM      9  O   ASP A   3      -7.342 -35.051 -28.717  0.00  0.00    -0.273 OA
BRANCH   7  10
ATOM     10  CA  MET A   4      -7.089 -37.794 -29.059  0.00  0.00    +0.138 C 
BRANCH  10  11
ATOM     11  C   MET A   4      -7.450 -39.285 -29.147  0.00  0.00    +0.227 C 
ATOM     12  O   MET A   4      -8.331 -39.804 -28.435  0.00  0.00    -0.286 OA
ENDBRANCH  10  11
BRANCH  10  13
ATOM     13  CB  MET A   4      -5.634 -37.576 -28.579  0.00  0.00    +0.039 C 
BRANCH  13  14
ATOM     14  CG  MET A   4      -5.423 -38.280 -27.213  0.00  0.00    +0.060 C 
BRANCH  14  15
ATOM     15  SD  MET A   4      -3.738 -37.909 -26.511  0.00  0.00    -0.139 S 
ATOM     16  CE  MET A   4      -3.497 -39.121 -25.188  0.00  0.00    +0.069 C 
ENDBRANCH  14  15
ENDBRANCH  13  14
ENDBRANCH  10  13
ENDBRANCH   7  10
ENDBRANCH   5   6
BRANCH   5  17
ATOM     17  CB  ASP A   3      -9.706 -33.940 -27.461  0.00  0.00    +0.143 C 
BRANCH  17  18
ATOM     18  CG  ASP A   3     -10.341 -34.041 -28.810  0.00  0.00    +0.367 C 
ATOM     19  OD2 ASP A   3     -10.668 -35.107 -29.329  0.00  0.00    -0.246 OA
ATOM     20  OD1 ASP A   3     -10.483 -32.897 -29.380  0.00  0.00    -0.246 OA
ENDBRANCH  17  18
ENDBRANCH   5  17
ENDBRANCH   3   5
BRANCH   1  21
ATOM     21  CA  GLN A   2      -7.359 -35.825 -23.655  0.00  0.00    +0.149 C 
BRANCH  21  24
ATOM     22  C   ASP A   1      -8.820 -36.957 -22.092  0.00  0.00    +0.239 C 
ATOM     23  O   ASP A   1      -9.800 -36.298 -22.510  0.00  0.00    -0.274 OA
ATOM     24  N   GLN A   2      -7.600 -36.798 -22.595  0.00  0.00    -0.297 N 
ATOM     25  H   GLN A   2      -6.812 -37.371 -22.231  0.00  0.00    +0.150 HD
BRANCH  22  26
ATOM     26  CA  ASP A   1      -9.070 -37.981 -20.977  0.00  0.00    +0.156 C 
BRANCH  26  27
ATOM     27  N   ASP A   1      -7.975 -38.098 -20.040  0.00  0.00    -0.238 NA
ATOM     28  H   ASP A   1      -7.898 -37.464 -19.219  0.00  0.00    +0.142 HD
ENDBRANCH  26  27
BRANCH  26  29
ATOM     29  CB  ASP A   1     -10.372 -37.591 -20.216  0.00  0.00    +0.140 C 
BRANCH  29  30
ATOM     30  CG  ASP A   1     -11.610 -37.777 -21.113  0.00  0.00    +0.367 C 
ATOM     31  OD2 ASP A   1     -12.587 -36.901 -20.976  0.00  0.00    -0.246 OA
ATOM     32  OD1 ASP A   1     -11.700 -38.700 -21.905  0.00  0.00    -0.246 OA
ENDBRANCH  29  30
ENDBRANCH  26  29
ENDBRANCH  22  26
ENDBRANCH  21  24
BRANCH  21  33
ATOM     33  CB  GLN A   2      -5.875 -35.830 -23.957  0.00  0.00    +0.039 C 
BRANCH  33  34
ATOM     34  CG  GLN A   2      -5.065 -35.146 -22.851  0.00  0.00    +0.087 C 
BRANCH  34  35
ATOM     35  CD  GLN A   2      -4.567 -36.114 -21.785  0.00  0.00    +0.219 C 
ATOM     36  NE2 GLN A   2      -3.591 -35.714 -20.947  0.00  0.00    -0.329 N 
ATOM     37 HE21 GLN A   2      -3.257 -36.351 -20.196  0.00  0.00    +0.145 HD
ATOM     38 HE22 GLN A   2      -3.172 -34.768 -21.051  0.00  0.00    +0.145 HD
ATOM     39  OE1 GLN A   2      -5.097 -37.230 -21.701  0.00  0.00    -0.275 OA
ENDBRANCH  34  35
ENDBRANCH  33  34
ENDBRANCH  21  33
ENDBRANCH   1  21
TORSDOF 18
REMARK  Name = ../refined-set-2016/1px4/1px4_pocket.pdb
REMARK  188 active torsions:
REMARK  status: ('A' for Active; 'I' for Inactive)
REMARK    1  A    between atoms: _1  and  _3
REMARK    2  A    between atoms: _3  and  _4
REMARK    3  A    between atoms: _3  and  _6
REMARK    4  A    between atoms: _6  and  _7
REMARK    5  A    between atoms: _12  and  _13
REMARK    6  A    between atoms: _15  and  _17
REMARK    7  A    between atoms: _17  and  _18
REMARK    8  A    between atoms: _17  and  _20
REMARK    9  A    between atoms: _20  and  _21
REMARK   10  A    between atoms: _26  and  _28
REMARK   11  A    between atoms: _28  and  _29
REMARK   12  A    between atoms: _28  and  _31
REMARK   13  A    between atoms: _34  and  _36
REMARK   14  A    between atoms: _36  and  _37
REMARK   15  A    between atoms: _36  and  _39
REMARK   16  A    between atoms: _39  and  _40
REMARK   17  A    between atoms: _43  and  _45
REMARK   18  A    between atoms: _45  and  _46
REMARK   19  A    between atoms: _45  and  _48
REMARK   20  A    between atoms: _48  and  _49
REMARK   21  A    between atoms: _49  and  _50
REMARK   22  A    between atoms: _55  and  _57
REMARK   23  A    between atoms: _57  and  _58
REMARK   24  A    between atoms: _57  and  _60
REMARK   25  A    between atoms: _60  and  _61
REMARK   26  A    between atoms: _64  and  _66
REMARK   27  A    between atoms: _66  and  _67
REMARK   28  A    between atoms: _66  and  _69
REMARK   29  A    between atoms: _69  and  _70
REMARK   30  A    between atoms: _70  and  _71
REMARK   31  A    between atoms: _73  and  _75
REMARK   32  A    between atoms: _75  and  _76
REMARK   33  A    between atoms: _75  and  _78
REMARK   34  A    between atoms: _78  and  _79
REMARK   35  A    between atoms: _84  and  _86
REMARK   36  A    between atoms: _86  and  _87
REMARK   37  A    between atoms: _86  and  _89
REMARK   38  A    between atoms: _89  and  _90
REMARK   39  A    between atoms: _95  and  _97
REMARK   40  A    between atoms: _97  and  _98
REMARK   41  A    between atoms: _97  and  _100
REMARK   42  A    between atoms: _100  and  _101
REMARK   43  A    between atoms: _101  and  _102
REMARK   44  A    between atoms: _102  and  _103
REMARK   45  A    between atoms: _112  and  _114
REMARK   46  A    between atoms: _114  and  _115
REMARK   47  A    between atoms: _114  and  _117
REMARK   48  A    between atoms: _117  and  _118
REMARK   49  A    between atoms: _120  and  _122
REMARK   50  A    between atoms: _122  and  _123
REMARK   51  A    between atoms: _122  and  _125
REMARK   52  A    between atoms: _125  and  _126
REMARK   53  A    between atoms: _131  and  _133
REMARK   54  A    between atoms: _133  and  _134
REMARK   55  A    between atoms: _133  and  _136
REMARK   56  A    between atoms: _136  and  _137
REMARK   57  A    between atoms: _137  and  _138
REMARK   58  A    between atoms: _141  and  _143
REMARK   59  A    between atoms: _143  and  _144
REMARK   60  A    between atoms: _143  and  _146
REMARK   61  A    between atoms: _146  and  _147
REMARK   62  A    between atoms: _152  and  _154
REMARK   63  A    between atoms: _154  and  _155
REMARK   64  A    between atoms: _154  and  _157
REMARK   65  A    between atoms: _157  and  _158
REMARK   66  A    between atoms: _158  and  _159
REMARK   67  A    between atoms: _161  and  _163
REMARK   68  A    between atoms: _163  and  _164
REMARK   69  A    between atoms: _163  and  _166
REMARK   70  A    between atoms: _166  and  _167
REMARK   71  A    between atoms: _172  and  _174
REMARK   72  A    between atoms: _174  and  _175
REMARK   73  A    between atoms: _174  and  _177
REMARK   74  A    between atoms: _177  and  _178
REMARK   75  A    between atoms: _178  and  _179
REMARK   76  A    between atoms: _179  and  _180
REMARK   77  A    between atoms: _180  and  MG_450
REMARK   78  A    between atoms: _182  and  _184
REMARK   79  A    between atoms: _184  and  _185
REMARK   80  A    between atoms: _184  and  _187
REMARK   81  A    between atoms: _187  and  _188
REMARK   82  A    between atoms: _188  and  _189
REMARK   83  A    between atoms: _192  and  _194
REMARK   84  A    between atoms: _194  and  _195
REMARK   85  A    between atoms: _194  and  _197
REMARK   86  A    between atoms: _197  and  _198
REMARK   87  A    between atoms: _198  and  _199
REMARK   88  A    between atoms: _201  and  _203
REMARK   89  A    between atoms: _203  and  _204
REMARK   90  A    between atoms: _203  and  _206
REMARK   91  A    between atoms: _206  and  _207
REMARK   92  A    between atoms: _212  and  _213
REMARK   93  A    between atoms: _215  and  _217
REMARK   94  A    between atoms: _217  and  _218
REMARK   95  A    between atoms: _217  and  _220
REMARK   96  A    between atoms: _220  and  _221
REMARK   97  A    between atoms: _221  and  _222
REMARK   98  A    between atoms: _222  and  _223
REMARK   99  A    between atoms: _223  and  _224
REMARK  100  A    between atoms: _228  and  _230
REMARK  101  A    between atoms: _230  and  _231
REMARK  102  A    between atoms: _230  and  _233
REMARK  103  A    between atoms: _235  and  _237
REMARK  104  A    between atoms: _237  and  _238
REMARK  105  A    between atoms: _237  and  _240
REMARK  106  A    between atoms: _240  and  _241
REMARK  107  A    between atoms: _241  and  _242
REMARK  108  A    between atoms: _245  and  _247
REMARK  109  A    between atoms: _247  and  _248
REMARK  110  A    between atoms: _247  and  _250
REMARK  111  A    between atoms: _250  and  _251
REMARK  112  A    between atoms: _256  and  _258
REMARK  113  A    between atoms: _258  and  _259
REMARK  114  A    between atoms: _262  and  _264
REMARK  115  A    between atoms: _264  and  _265
REMARK  116  A    between atoms: _264  and  _267
REMARK  117  A    between atoms: _267  and  _268
REMARK  118  A    between atoms: _268  and  _269
REMARK  119  A    between atoms: _271  and  _273
REMARK  120  A    between atoms: _273  and  _274
REMARK  121  A    between atoms: _273  and  _276
REMARK  122  A    between atoms: _276  and  _277
REMARK  123  A    between atoms: _287  and  _289
REMARK  124  A    between atoms: _289  and  _290
REMARK  125  A    between atoms: _289  and  _292
REMARK  126  A    between atoms: _292  and  _293
REMARK  127  A    between atoms: _296  and  _298
REMARK  128  A    between atoms: _298  and  _299
REMARK  129  A    between atoms: _298  and  _301
REMARK  130  A    between atoms: _301  and  _302
REMARK  131  A    between atoms: _302  and  _303
REMARK  132  A    between atoms: _308  and  _310
REMARK  133  A    between atoms: _310  and  _311
REMARK  134  A    between atoms: _310  and  _313
REMARK  135  A    between atoms: _313  and  _314
REMARK  136  A    between atoms: _317  and  _319
REMARK  137  A    between atoms: _319  and  _320
REMARK  138  A    between atoms: _319  and  _322
REMARK  139  A    between atoms: _322  and  _323
REMARK  140  A    between atoms: _323  and  _324
REMARK  141  A    between atoms: _329  and  _331
REMARK  142  A    between atoms: _331  and  _332
REMARK  143  A    between atoms: _331  and  _334
REMARK  144  A    between atoms: _334  and  _335
REMARK  145  A    between atoms: _341  and  _343
REMARK  146  A    between atoms: _343  and  _344
REMARK  147  A    between atoms: _343  and  _346
REMARK  148  A    between atoms: _348  and  _350
REMARK  149  A    between atoms: _350  and  _351
REMARK  150  A    between atoms: _350  and  _353
REMARK  151  A    between atoms: _353  and  _354
REMARK  152  A    between atoms: _354  and  _355
REMARK  153  A    between atoms: _357  and  _359
REMARK  154  A    between atoms: _359  and  _360
REMARK  155  A    between atoms: _359  and  _362
REMARK  156  A    between atoms: _362  and  _363
REMARK  157  A    between atoms: _368  and  _370
REMARK  158  A    between atoms: _370  and  _371
REMARK  159  A    between atoms: _374  and  _376
REMARK  160  A    between atoms: _376  and  _377
REMARK  161  A    between atoms: _376  and  _379
REMARK  162  A    between atoms: _382  and  _384
REMARK  163  A    between atoms: _384  and  _385
REMARK  164  A    between atoms: _384  and  _387
REMARK  165  A    between atoms: _387  and  _388
REMARK  166  A    between atoms: _391  and  _393
REMARK  167  A    between atoms: _393  and  _394
REMARK  168  A    between atoms: _393  and  _396
REMARK  169  A    between atoms: _396  and  _397
REMARK  170  A    between atoms: _399  and  _401
REMARK  171  A    between atoms: _401  and  _402
REMARK  172  A    between atoms: _401  and  _404
REMARK  173  A    between atoms: _404  and  _405
REMARK  174  A    between atoms: _415  and  _417
REMARK  175  A    between atoms: _417  and  _418
REMARK  176  A    between atoms: _417  and  _420
REMARK  177  A    between atoms: _420  and  _421
REMARK  178  A    between atoms: _423  and  _425
REMARK  179  A    between atoms: _425  and  _426
REMARK  180  A    between atoms: _425  and  _428
REMARK  181  A    between atoms: _428  and  _429
REMARK  182  A    between atoms: _429  and  _430
REMARK  183  A    between atoms: _433  and  _435
REMARK  184  A    between atoms: _435  and  _436
REMARK  185  A    between atoms: _435  and  _438
REMARK  186  A    between atoms: _438  and  _439
REMARK  187  A    between atoms: _439  and  _440
REMARK  188  A    between atoms: _440  and  _441
REMARK                            x       y       z     vdW  Elec       q    Type
REMARK                         _______ _______ _______ _____ _____    ______ ____
ROOT
ATOM      1  CB  ASN A   1      -2.053 -27.038 -29.422  0.00  0.00    +0.110 C 
ENDROOT
BRANCH   1   2
ATOM      2  CG  ASN A   1      -2.501 -26.094 -28.310  0.00  0.00    +0.221 C 
ATOM      3  OD1 ASN A   1      -2.386 -26.443 -27.101  0.00  0.00    -0.275 OA
ATOM      4  ND2 ASN A   1      -3.086 -24.952 -28.723  0.00  0.00    -0.329 N 
ATOM      5 HD21 ASN A   1      -3.481 -24.289 -28.026  0.00  0.00    +0.145 HD
ATOM      6 HD22 ASN A   1      -3.142 -24.734 -29.738  0.00  0.00    +0.145 HD
ENDBRANCH   1   2
BRANCH   1   7
ATOM      7  CA  ASN A   1      -0.591 -26.793 -29.801  0.00  0.00    +0.142 C 
BRANCH   7   8
ATOM      8  N   ASN A   1      -0.473 -25.614 -30.681  0.00  0.00    -0.239 NA
ATOM      9  H   ASN A   1      -1.318 -25.282 -31.188  0.00  0.00    +0.142 HD
ENDBRANCH   7   8
BRANCH   7  10
ATOM     10  C   ASN A   1      -0.133 -27.992 -30.652  0.00  0.00    +0.225 C 
ATOM     11  O   ASN A   1      -0.529 -28.100 -31.848  0.00  0.00    -0.287 OA
ENDBRANCH   7  10
ENDBRANCH   1   7
TORSDOF 4
REMARK  Name = ../refined-set-2016/1px4/1px4_pocket.pdb
REMARK  188 active torsions:
REMARK  status: ('A' for Active; 'I' for Inactive)
REMARK    1  A    between atoms: _1  and  _3
REMARK    2  A    between atoms: _3  and  _4
REMARK    3  A    between atoms: _3  and  _6
REMARK    4  A    between atoms: _6  and  _7
REMARK    5  A    between atoms: _12  and  _13
REMARK    6  A    between atoms: _15  and  _17
REMARK    7  A    between atoms: _17  and  _18
REMARK    8  A    between atoms: _17  and  _20
REMARK    9  A    between atoms: _20  and  _21
REMARK   10  A    between atoms: _26  and  _28
REMARK   11  A    between atoms: _28  and  _29
REMARK   12  A    between atoms: _28  and  _31
REMARK   13  A    between atoms: _34  and  _36
REMARK   14  A    between atoms: _36  and  _37
REMARK   15  A    between atoms: _36  and  _39
REMARK   16  A    between atoms: _39  and  _40
REMARK   17  A    between atoms: _43  and  _45
REMARK   18  A    between atoms: _45  and  _46
REMARK   19  A    between atoms: _45  and  _48
REMARK   20  A    between atoms: _48  and  _49
REMARK   21  A    between atoms: _49  and  _50
REMARK   22  A    between atoms: _55  and  _57
REMARK   23  A    between atoms: _57  and  _58
REMARK   24  A    between atoms: _57  and  _60
REMARK   25  A    between atoms: _60  and  _61
REMARK   26  A    between atoms: _64  and  _66
REMARK   27  A    between atoms: _66  and  _67
REMARK   28  A    between atoms: _66  and  _69
REMARK   29  A    between atoms: _69  and  _70
REMARK   30  A    between atoms: _70  and  _71
REMARK   31  A    between atoms: _73  and  _75
REMARK   32  A    between atoms: _75  and  _76
REMARK   33  A    between atoms: _75  and  _78
REMARK   34  A    between atoms: _78  and  _79
REMARK   35  A    between atoms: _84  and  _86
REMARK   36  A    between atoms: _86  and  _87
REMARK   37  A    between atoms: _86  and  _89
REMARK   38  A    between atoms: _89  and  _90
REMARK   39  A    between atoms: _95  and  _97
REMARK   40  A    between atoms: _97  and  _98
REMARK   41  A    between atoms: _97  and  _100
REMARK   42  A    between atoms: _100  and  _101
REMARK   43  A    between atoms: _101  and  _102
REMARK   44  A    between atoms: _102  and  _103
REMARK   45  A    between atoms: _112  and  _114
REMARK   46  A    between atoms: _114  and  _115
REMARK   47  A    between atoms: _114  and  _117
REMARK   48  A    between atoms: _117  and  _118
REMARK   49  A    between atoms: _120  and  _122
REMARK   50  A    between atoms: _122  and  _123
REMARK   51  A    between atoms: _122  and  _125
REMARK   52  A    between atoms: _125  and  _126
REMARK   53  A    between atoms: _131  and  _133
REMARK   54  A    between atoms: _133  and  _134
REMARK   55  A    between atoms: _133  and  _136
REMARK   56  A    between atoms: _136  and  _137
REMARK   57  A    between atoms: _137  and  _138
REMARK   58  A    between atoms: _141  and  _143
REMARK   59  A    between atoms: _143  and  _144
REMARK   60  A    between atoms: _143  and  _146
REMARK   61  A    between atoms: _146  and  _147
REMARK   62  A    between atoms: _152  and  _154
REMARK   63  A    between atoms: _154  and  _155
REMARK   64  A    between atoms: _154  and  _157
REMARK   65  A    between atoms: _157  and  _158
REMARK   66  A    between atoms: _158  and  _159
REMARK   67  A    between atoms: _161  and  _163
REMARK   68  A    between atoms: _163  and  _164
REMARK   69  A    between atoms: _163  and  _166
REMARK   70  A    between atoms: _166  and  _167
REMARK   71  A    between atoms: _172  and  _174
REMARK   72  A    between atoms: _174  and  _175
REMARK   73  A    between atoms: _174  and  _177
REMARK   74  A    between atoms: _177  and  _178
REMARK   75  A    between atoms: _178  and  _179
REMARK   76  A    between atoms: _179  and  _180
REMARK   77  A    between atoms: _180  and  MG_450
REMARK   78  A    between atoms: _182  and  _184
REMARK   79  A    between atoms: _184  and  _185
REMARK   80  A    between atoms: _184  and  _187
REMARK   81  A    between atoms: _187  and  _188
REMARK   82  A    between atoms: _188  and  _189
REMARK   83  A    between atoms: _192  and  _194
REMARK   84  A    between atoms: _194  and  _195
REMARK   85  A    between atoms: _194  and  _197
REMARK   86  A    between atoms: _197  and  _198
REMARK   87  A    between atoms: _198  and  _199
REMARK   88  A    between atoms: _201  and  _203
REMARK   89  A    between atoms: _203  and  _204
REMARK   90  A    between atoms: _203  and  _206
REMARK   91  A    between atoms: _206  and  _207
REMARK   92  A    between atoms: _212  and  _213
REMARK   93  A    between atoms: _215  and  _217
REMARK   94  A    between atoms: _217  and  _218
REMARK   95  A    between atoms: _217  and  _220
REMARK   96  A    between atoms: _220  and  _221
REMARK   97  A    between atoms: _221  and  _222
REMARK   98  A    between atoms: _222  and  _223
REMARK   99  A    between atoms: _223  and  _224
REMARK  100  A    between atoms: _228  and  _230
REMARK  101  A    between atoms: _230  and  _231
REMARK  102  A    between atoms: _230  and  _233
REMARK  103  A    between atoms: _235  and  _237
REMARK  104  A    between atoms: _237  and  _238
REMARK  105  A    between atoms: _237  and  _240
REMARK  106  A    between atoms: _240  and  _241
REMARK  107  A    between atoms: _241  and  _242
REMARK  108  A    between atoms: _245  and  _247
REMARK  109  A    between atoms: _247  and  _248
REMARK  110  A    between atoms: _247  and  _250
REMARK  111  A    between atoms: _250  and  _251
REMARK  112  A    between atoms: _256  and  _258
REMARK  113  A    between atoms: _258  and  _259
REMARK  114  A    between atoms: _262  and  _264
REMARK  115  A    between atoms: _264  and  _265
REMARK  116  A    between atoms: _264  and  _267
REMARK  117  A    between atoms: _267  and  _268
REMARK  118  A    between atoms: _268  and  _269
REMARK  119  A    between atoms: _271  and  _273
REMARK  120  A    between atoms: _273  and  _274
REMARK  121  A    between atoms: _273  and  _276
REMARK  122  A    between atoms: _276  and  _277
REMARK  123  A    between atoms: _287  and  _289
REMARK  124  A    between atoms: _289  and  _290
REMARK  125  A    between atoms: _289  and  _292
REMARK  126  A    between atoms: _292  and  _293
REMARK  127  A    between atoms: _296  and  _298
REMARK  128  A    between atoms: _298  and  _299
REMARK  129  A    between atoms: _298  and  _301
REMARK  130  A    between atoms: _301  and  _302
REMARK  131  A    between atoms: _302  and  _303
REMARK  132  A    between atoms: _308  and  _310
REMARK  133  A    between atoms: _310  and  _311
REMARK  134  A    between atoms: _310  and  _313
REMARK  135  A    between atoms: _313  and  _314
REMARK  136  A    between atoms: _317  and  _319
REMARK  137  A    between atoms: _319  and  _320
REMARK  138  A    between atoms: _319  and  _322
REMARK  139  A    between atoms: _322  and  _323
REMARK  140  A    between atoms: _323  and  _324
REMARK  141  A    between atoms: _329  and  _331
REMARK  142  A    between atoms: _331  and  _332
REMARK  143  A    between atoms: _331  and  _334
REMARK  144  A    between atoms: _334  and  _335
REMARK  145  A    between atoms: _341  and  _343
REMARK  146  A    between atoms: _343  and  _344
REMARK  147  A    between atoms: _343  and  _346
REMARK  148  A    between atoms: _348  and  _350
REMARK  149  A    between atoms: _350  and  _351
REMARK  150  A    between atoms: _350  and  _353
REMARK  151  A    between atoms: _353  and  _354
REMARK  152  A    between atoms: _354  and  _355
REMARK  153  A    between atoms: _357  and  _359
REMARK  154  A    between atoms: _359  and  _360
REMARK  155  A    between atoms: _359  and  _362
REMARK  156  A    between atoms: _362  and  _363
REMARK  157  A    between atoms: _368  and  _370
REMARK  158  A    between atoms: _370  and  _371
REMARK  159  A    between atoms: _374  and  _376
REMARK  160  A    between atoms: _376  and  _377
REMARK  161  A    between atoms: _376  and  _379
REMARK  162  A    between atoms: _382  and  _384
REMARK  163  A    between atoms: _384  and  _385
REMARK  164  A    between atoms: _384  and  _387
REMARK  165  A    between atoms: _387  and  _388
REMARK  166  A    between atoms: _391  and  _393
REMARK  167  A    between atoms: _393  and  _394
REMARK  168  A    between atoms: _393  and  _396
REMARK  169  A    between atoms: _396  and  _397
REMARK  170  A    between atoms: _399  and  _401
REMARK  171  A    between atoms: _401  and  _402
REMARK  172  A    between atoms: _401  and  _404
REMARK  173  A    between atoms: _404  and  _405
REMARK  174  A    between atoms: _415  and  _417
REMARK  175  A    between atoms: _417  and  _418
REMARK  176  A    between atoms: _417  and  _420
REMARK  177  A    between atoms: _420  and  _421
REMARK  178  A    between atoms: _423  and  _425
REMARK  179  A    between atoms: _425  and  _426
REMARK  180  A    between atoms: _425  and  _428
REMARK  181  A    between atoms: _428  and  _429
REMARK  182  A    between atoms: _429  and  _430
REMARK  183  A    between atoms: _433  and  _435
REMARK  184  A    between atoms: _435  and  _436
REMARK  185  A    between atoms: _435  and  _438
REMARK  186  A    between atoms: _438  and  _439
REMARK  187  A    between atoms: _439  and  _440
REMARK  188  A    between atoms: _440  and  _441
REMARK                            x       y       z     vdW  Elec       q    Type
REMARK                         _______ _______ _______ _____ _____    ______ ____
ROOT
ATOM      1  CB  HIS A   1      -1.272 -34.259 -30.458  0.00  0.00    +0.072 C 
ENDROOT
BRANCH   1   2
ATOM      2  CG  HIS A   1      -2.357 -33.999 -29.490  0.00  0.00    +0.082 A 
ATOM      3  ND1 HIS A   1      -2.402 -34.716 -28.312  0.00  0.00    -0.227 NA
ATOM      4  CE1 HIS A   1      -3.471 -34.302 -27.655  0.00  0.00    +0.199 A 
ATOM      5  NE2 HIS A   1      -4.085 -33.356 -28.399  0.00  0.00    -0.221 NA
ATOM      6  CD2 HIS A   1      -3.391 -33.141 -29.542  0.00  0.00    +0.115 A 
ENDBRANCH   1   2
BRANCH   1   7
ATOM      7  CA  HIS A   1       0.037 -33.537 -30.069  0.00  0.00    +0.139 C 
BRANCH   7   8
ATOM      8  N   HIS A   1       0.152 -32.199 -30.674  0.00  0.00    -0.239 NA
ATOM      9  H   HIS A   1      -0.416 -31.967 -31.514  0.00  0.00    +0.142 HD
ENDBRANCH   7   8
BRANCH   7  10
ATOM     10  C   HIS A   1       1.131 -34.395 -30.692  0.00  0.00    +0.224 C 
ATOM     11  O   HIS A   1       1.641 -34.083 -31.756  0.00  0.00    -0.287 OA
ENDBRANCH   7  10
ENDBRANCH   1   7
TORSDOF 4
REMARK  Name = ../refined-set-2016/1px4/1px4_pocket.pdb
REMARK  188 active torsions:
REMARK  status: ('A' for Active; 'I' for Inactive)
REMARK    1  A    between atoms: _1  and  _3
REMARK    2  A    between atoms: _3  and  _4
REMARK    3  A    between atoms: _3  and  _6
REMARK    4  A    between atoms: _6  and  _7
REMARK    5  A    between atoms: _12  and  _13
REMARK    6  A    between atoms: _15  and  _17
REMARK    7  A    between atoms: _17  and  _18
REMARK    8  A    between atoms: _17  and  _20
REMARK    9  A    between atoms: _20  and  _21
REMARK   10  A    between atoms: _26  and  _28
REMARK   11  A    between atoms: _28  and  _29
REMARK   12  A    between atoms: _28  and  _31
REMARK   13  A    between atoms: _34  and  _36
REMARK   14  A    between atoms: _36  and  _37
REMARK   15  A    between atoms: _36  and  _39
REMARK   16  A    between atoms: _39  and  _40
REMARK   17  A    between atoms: _43  and  _45
REMARK   18  A    between atoms: _45  and  _46
REMARK   19  A    between atoms: _45  and  _48
REMARK   20  A    between atoms: _48  and  _49
REMARK   21  A    between atoms: _49  and  _50
REMARK   22  A    between atoms: _55  and  _57
REMARK   23  A    between atoms: _57  and  _58
REMARK   24  A    between atoms: _57  and  _60
REMARK   25  A    between atoms: _60  and  _61
REMARK   26  A    between atoms: _64  and  _66
REMARK   27  A    between atoms: _66  and  _67
REMARK   28  A    between atoms: _66  and  _69
REMARK   29  A    between atoms: _69  and  _70
REMARK   30  A    between atoms: _70  and  _71
REMARK   31  A    between atoms: _73  and  _75
REMARK   32  A    between atoms: _75  and  _76
REMARK   33  A    between atoms: _75  and  _78
REMARK   34  A    between atoms: _78  and  _79
REMARK   35  A    between atoms: _84  and  _86
REMARK   36  A    between atoms: _86  and  _87
REMARK   37  A    between atoms: _86  and  _89
REMARK   38  A    between atoms: _89  and  _90
REMARK   39  A    between atoms: _95  and  _97
REMARK   40  A    between atoms: _97  and  _98
REMARK   41  A    between atoms: _97  and  _100
REMARK   42  A    between atoms: _100  and  _101
REMARK   43  A    between atoms: _101  and  _102
REMARK   44  A    between atoms: _102  and  _103
REMARK   45  A    between atoms: _112  and  _114
REMARK   46  A    between atoms: _114  and  _115
REMARK   47  A    between atoms: _114  and  _117
REMARK   48  A    between atoms: _117  and  _118
REMARK   49  A    between atoms: _120  and  _122
REMARK   50  A    between atoms: _122  and  _123
REMARK   51  A    between atoms: _122  and  _125
REMARK   52  A    between atoms: _125  and  _126
REMARK   53  A    between atoms: _131  and  _133
REMARK   54  A    between atoms: _133  and  _134
REMARK   55  A    between atoms: _133  and  _136
REMARK   56  A    between atoms: _136  and  _137
REMARK   57  A    between atoms: _137  and  _138
REMARK   58  A    between atoms: _141  and  _143
REMARK   59  A    between atoms: _143  and  _144
REMARK   60  A    between atoms: _143  and  _146
REMARK   61  A    between atoms: _146  and  _147
REMARK   62  A    between atoms: _152  and  _154
REMARK   63  A    between atoms: _154  and  _155
REMARK   64  A    between atoms: _154  and  _157
REMARK   65  A    between atoms: _157  and  _158
REMARK   66  A    between atoms: _158  and  _159
REMARK   67  A    between atoms: _161  and  _163
REMARK   68  A    between atoms: _163  and  _164
REMARK   69  A    between atoms: _163  and  _166
REMARK   70  A    between atoms: _166  and  _167
REMARK   71  A    between atoms: _172  and  _174
REMARK   72  A    between atoms: _174  and  _175
REMARK   73  A    between atoms: _174  and  _177
REMARK   74  A    between atoms: _177  and  _178
REMARK   75  A    between atoms: _178  and  _179
REMARK   76  A    between atoms: _179  and  _180
REMARK   77  A    between atoms: _180  and  MG_450
REMARK   78  A    between atoms: _182  and  _184
REMARK   79  A    between atoms: _184  and  _185
REMARK   80  A    between atoms: _184  and  _187
REMARK   81  A    between atoms: _187  and  _188
REMARK   82  A    between atoms: _188  and  _189
REMARK   83  A    between atoms: _192  and  _194
REMARK   84  A    between atoms: _194  and  _195
REMARK   85  A    between atoms: _194  and  _197
REMARK   86  A    between atoms: _197  and  _198
REMARK   87  A    between atoms: _198  and  _199
REMARK   88  A    between atoms: _201  and  _203
REMARK   89  A    between atoms: _203  and  _204
REMARK   90  A    between atoms: _203  and  _206
REMARK   91  A    between atoms: _206  and  _207
REMARK   92  A    between atoms: _212  and  _213
REMARK   93  A    between atoms: _215  and  _217
REMARK   94  A    between atoms: _217  and  _218
REMARK   95  A    between atoms: _217  and  _220
REMARK   96  A    between atoms: _220  and  _221
REMARK   97  A    between atoms: _221  and  _222
REMARK   98  A    between atoms: _222  and  _223
REMARK   99  A    between atoms: _223  and  _224
REMARK  100  A    between atoms: _228  and  _230
REMARK  101  A    between atoms: _230  and  _231
REMARK  102  A    between atoms: _230  and  _233
REMARK  103  A    between atoms: _235  and  _237
REMARK  104  A    between atoms: _237  and  _238
REMARK  105  A    between atoms: _237  and  _240
REMARK  106  A    between atoms: _240  and  _241
REMARK  107  A    between atoms: _241  and  _242
REMARK  108  A    between atoms: _245  and  _247
REMARK  109  A    between atoms: _247  and  _248
REMARK  110  A    between atoms: _247  and  _250
REMARK  111  A    between atoms: _250  and  _251
REMARK  112  A    between atoms: _256  and  _258
REMARK  113  A    between atoms: _258  and  _259
REMARK  114  A    between atoms: _262  and  _264
REMARK  115  A    between atoms: _264  and  _265
REMARK  116  A    between atoms: _264  and  _267
REMARK  117  A    between atoms: _267  and  _268
REMARK  118  A    between atoms: _268  and  _269
REMARK  119  A    between atoms: _271  and  _273
REMARK  120  A    between atoms: _273  and  _274
REMARK  121  A    between atoms: _273  and  _276
REMARK  122  A    between atoms: _276  and  _277
REMARK  123  A    between atoms: _287  and  _289
REMARK  124  A    between atoms: _289  and  _290
REMARK  125  A    between atoms: _289  and  _292
REMARK  126  A    between atoms: _292  and  _293
REMARK  127  A    between atoms: _296  and  _298
REMARK  128  A    between atoms: _298  and  _299
REMARK  129  A    between atoms: _298  and  _301
REMARK  130  A    between atoms: _301  and  _302
REMARK  131  A    between atoms: _302  and  _303
REMARK  132  A    between atoms: _308  and  _310
REMARK  133  A    between atoms: _310  and  _311
REMARK  134  A    between atoms: _310  and  _313
REMARK  135  A    between atoms: _313  and  _314
REMARK  136  A    between atoms: _317  and  _319
REMARK  137  A    between atoms: _319  and  _320
REMARK  138  A    between atoms: _319  and  _322
REMARK  139  A    between atoms: _322  and  _323
REMARK  140  A    between atoms: _323  and  _324
REMARK  141  A    between atoms: _329  and  _331
REMARK  142  A    between atoms: _331  and  _332
REMARK  143  A    between atoms: _331  and  _334
REMARK  144  A    between atoms: _334  and  _335
REMARK  145  A    between atoms: _341  and  _343
REMARK  146  A    between atoms: _343  and  _344
REMARK  147  A    between atoms: _343  and  _346
REMARK  148  A    between atoms: _348  and  _350
REMARK  149  A    between atoms: _350  and  _351
REMARK  150  A    between atoms: _350  and  _353
REMARK  151  A    between atoms: _353  and  _354
REMARK  152  A    between atoms: _354  and  _355
REMARK  153  A    between atoms: _357  and  _359
REMARK  154  A    between atoms: _359  and  _360
REMARK  155  A    between atoms: _359  and  _362
REMARK  156  A    between atoms: _362  and  _363
REMARK  157  A    between atoms: _368  and  _370
REMARK  158  A    between atoms: _370  and  _371
REMARK  159  A    between atoms: _374  and  _376
REMARK  160  A    between atoms: _376  and  _377
REMARK  161  A    between atoms: _376  and  _379
REMARK  162  A    between atoms: _382  and  _384
REMARK  163  A    between atoms: _384  and  _385
REMARK  164  A    between atoms: _384  and  _387
REMARK  165  A    between atoms: _387  and  _388
REMARK  166  A    between atoms: _391  and  _393
REMARK  167  A    between atoms: _393  and  _394
REMARK  168  A    between atoms: _393  and  _396
REMARK  169  A    between atoms: _396  and  _397
REMARK  170  A    between atoms: _399  and  _401
REMARK  171  A    between atoms: _401  and  _402
REMARK  172  A    between atoms: _401  and  _404
REMARK  173  A    between atoms: _404  and  _405
REMARK  174  A    between atoms: _415  and  _417
REMARK  175  A    between atoms: _417  and  _418
REMARK  176  A    between atoms: _417  and  _420
REMARK  177  A    between atoms: _420  and  _421
REMARK  178  A    between atoms: _423  and  _425
REMARK  179  A    between atoms: _425  and  _426
REMARK  180  A    between atoms: _425  and  _428
REMARK  181  A    between atoms: _428  and  _429
REMARK  182  A    between atoms: _429  and  _430
REMARK  183  A    between atoms: _433  and  _435
REMARK  184  A    between atoms: _435  and  _436
REMARK  185  A    between atoms: _435  and  _438
REMARK  186  A    between atoms: _438  and  _439
REMARK  187  A    between atoms: _439  and  _440
REMARK  188  A    between atoms: _440  and  _441
REMARK                            x       y       z     vdW  Elec       q    Type
REMARK                         _______ _______ _______ _____ _____    ______ ____
ROOT
ATOM      1  NE  ARG A   1      -1.867 -25.906 -23.379  0.00  0.00    -0.265 N 
ATOM      2  HE  ARG A   1      -1.436 -26.181 -22.473  0.00  0.00    +0.259 HD
ATOM      3  CZ  ARG A   1      -3.181 -26.146 -23.557  0.00  0.00    +0.342 C 
ATOM      4  NH2 ARG A   1      -3.815 -26.647 -22.495  0.00  0.00    -0.292 N 
ATOM      5 HH21 ARG A   1      -3.293 -26.824 -21.613  0.00  0.00    +0.255 HD
ATOM      6 HH22 ARG A   1      -4.831 -26.861 -22.549  0.00  0.00    +0.255 HD
ATOM      7  NH1 ARG A   1      -3.821 -25.957 -24.731  0.00  0.00    -0.292 N 
ATOM      8 HH11 ARG A   1      -4.838 -26.160 -24.807  0.00  0.00    +0.255 HD
ATOM      9 HH12 ARG A   1      -3.297 -25.608 -25.559  0.00  0.00    +0.255 HD
ENDROOT
BRANCH   1  10
ATOM     10  CD  ARG A   1      -1.008 -25.278 -24.393  0.00  0.00    +0.174 C 
BRANCH  10  11
ATOM     11  CG  ARG A   1       0.148 -26.159 -24.855  0.00  0.00    +0.045 C 
BRANCH  11  12
ATOM     12  CB  ARG A   1       0.871 -25.510 -26.021  0.00  0.00    +0.029 C 
BRANCH  12  13
ATOM     13  CA  ARG A   1       2.264 -26.056 -26.240  0.00  0.00    +0.133 C 
BRANCH  13  14
ATOM     14  N   ARG A   1       2.836 -25.574 -27.477  0.00  0.00    -0.239 NA
ATOM     15  H   ARG A   1       2.261 -25.576 -28.344  0.00  0.00    +0.142 HD
ENDBRANCH  13  14
BRANCH  13  16
ATOM     16  C   ARG A   1       2.152 -27.572 -26.325  0.00  0.00    +0.224 C 
ATOM     17  O   ARG A   1       1.582 -28.082 -27.305  0.00  0.00    -0.287 OA
ENDBRANCH  13  16
ENDBRANCH  12  13
ENDBRANCH  11  12
ENDBRANCH  10  11
ENDBRANCH   1  10
TORSDOF 6
REMARK  Name = ../refined-set-2016/1px4/1px4_pocket.pdb
REMARK  188 active torsions:
REMARK  status: ('A' for Active; 'I' for Inactive)
REMARK    1  A    between atoms: _1  and  _3
REMARK    2  A    between atoms: _3  and  _4
REMARK    3  A    between atoms: _3  and  _6
REMARK    4  A    between atoms: _6  and  _7
REMARK    5  A    between atoms: _12  and  _13
REMARK    6  A    between atoms: _15  and  _17
REMARK    7  A    between atoms: _17  and  _18
REMARK    8  A    between atoms: _17  and  _20
REMARK    9  A    between atoms: _20  and  _21
REMARK   10  A    between atoms: _26  and  _28
REMARK   11  A    between atoms: _28  and  _29
REMARK   12  A    between atoms: _28  and  _31
REMARK   13  A    between atoms: _34  and  _36
REMARK   14  A    between atoms: _36  and  _37
REMARK   15  A    between atoms: _36  and  _39
REMARK   16  A    between atoms: _39  and  _40
REMARK   17  A    between atoms: _43  and  _45
REMARK   18  A    between atoms: _45  and  _46
REMARK   19  A    between atoms: _45  and  _48
REMARK   20  A    between atoms: _48  and  _49
REMARK   21  A    between atoms: _49  and  _50
REMARK   22  A    between atoms: _55  and  _57
REMARK   23  A    between atoms: _57  and  _58
REMARK   24  A    between atoms: _57  and  _60
REMARK   25  A    between atoms: _60  and  _61
REMARK   26  A    between atoms: _64  and  _66
REMARK   27  A    between atoms: _66  and  _67
REMARK   28  A    between atoms: _66  and  _69
REMARK   29  A    between atoms: _69  and  _70
REMARK   30  A    between atoms: _70  and  _71
REMARK   31  A    between atoms: _73  and  _75
REMARK   32  A    between atoms: _75  and  _76
REMARK   33  A    between atoms: _75  and  _78
REMARK   34  A    between atoms: _78  and  _79
REMARK   35  A    between atoms: _84  and  _86
REMARK   36  A    between atoms: _86  and  _87
REMARK   37  A    between atoms: _86  and  _89
REMARK   38  A    between atoms: _89  and  _90
REMARK   39  A    between atoms: _95  and  _97
REMARK   40  A    between atoms: _97  and  _98
REMARK   41  A    between atoms: _97  and  _100
REMARK   42  A    between atoms: _100  and  _101
REMARK   43  A    between atoms: _101  and  _102
REMARK   44  A    between atoms: _102  and  _103
REMARK   45  A    between atoms: _112  and  _114
REMARK   46  A    between atoms: _114  and  _115
REMARK   47  A    between atoms: _114  and  _117
REMARK   48  A    between atoms: _117  and  _118
REMARK   49  A    between atoms: _120  and  _122
REMARK   50  A    between atoms: _122  and  _123
REMARK   51  A    between atoms: _122  and  _125
REMARK   52  A    between atoms: _125  and  _126
REMARK   53  A    between atoms: _131  and  _133
REMARK   54  A    between atoms: _133  and  _134
REMARK   55  A    between atoms: _133  and  _136
REMARK   56  A    between atoms: _136  and  _137
REMARK   57  A    between atoms: _137  and  _138
REMARK   58  A    between atoms: _141  and  _143
REMARK   59  A    between atoms: _143  and  _144
REMARK   60  A    between atoms: _143  and  _146
REMARK   61  A    between atoms: _146  and  _147
REMARK   62  A    between atoms: _152  and  _154
REMARK   63  A    between atoms: _154  and  _155
REMARK   64  A    between atoms: _154  and  _157
REMARK   65  A    between atoms: _157  and  _158
REMARK   66  A    between atoms: _158  and  _159
REMARK   67  A    between atoms: _161  and  _163
REMARK   68  A    between atoms: _163  and  _164
REMARK   69  A    between atoms: _163  and  _166
REMARK   70  A    between atoms: _166  and  _167
REMARK   71  A    between atoms: _172  and  _174
REMARK   72  A    between atoms: _174  and  _175
REMARK   73  A    between atoms: _174  and  _177
REMARK   74  A    between atoms: _177  and  _178
REMARK   75  A    between atoms: _178  and  _179
REMARK   76  A    between atoms: _179  and  _180
REMARK   77  A    between atoms: _180  and  MG_450
REMARK   78  A    between atoms: _182  and  _184
REMARK   79  A    between atoms: _184  and  _185
REMARK   80  A    between atoms: _184  and  _187
REMARK   81  A    between atoms: _187  and  _188
REMARK   82  A    between atoms: _188  and  _189
REMARK   83  A    between atoms: _192  and  _194
REMARK   84  A    between atoms: _194  and  _195
REMARK   85  A    between atoms: _194  and  _197
REMARK   86  A    between atoms: _197  and  _198
REMARK   87  A    between atoms: _198  and  _199
REMARK   88  A    between atoms: _201  and  _203
REMARK   89  A    between atoms: _203  and  _204
REMARK   90  A    between atoms: _203  and  _206
REMARK   91  A    between atoms: _206  and  _207
REMARK   92  A    between atoms: _212  and  _213
REMARK   93  A    between atoms: _215  and  _217
REMARK   94  A    between atoms: _217  and  _218
REMARK   95  A    between atoms: _217  and  _220
REMARK   96  A    between atoms: _220  and  _221
REMARK   97  A    between atoms: _221  and  _222
REMARK   98  A    between atoms: _222  and  _223
REMARK   99  A    between atoms: _223  and  _224
REMARK  100  A    between atoms: _228  and  _230
REMARK  101  A    between atoms: _230  and  _231
REMARK  102  A    between atoms: _230  and  _233
REMARK  103  A    between atoms: _235  and  _237
REMARK  104  A    between atoms: _237  and  _238
REMARK  105  A    between atoms: _237  and  _240
REMARK  106  A    between atoms: _240  and  _241
REMARK  107  A    between atoms: _241  and  _242
REMARK  108  A    between atoms: _245  and  _247
REMARK  109  A    between atoms: _247  and  _248
REMARK  110  A    between atoms: _247  and  _250
REMARK  111  A    between atoms: _250  and  _251
REMARK  112  A    between atoms: _256  and  _258
REMARK  113  A    between atoms: _258  and  _259
REMARK  114  A    between atoms: _262  and  _264
REMARK  115  A    between atoms: _264  and  _265
REMARK  116  A    between atoms: _264  and  _267
REMARK  117  A    between atoms: _267  and  _268
REMARK  118  A    between atoms: _268  and  _269
REMARK  119  A    between atoms: _271  and  _273
REMARK  120  A    between atoms: _273  and  _274
REMARK  121  A    between atoms: _273  and  _276
REMARK  122  A    between atoms: _276  and  _277
REMARK  123  A    between atoms: _287  and  _289
REMARK  124  A    between atoms: _289  and  _290
REMARK  125  A    between atoms: _289  and  _292
REMARK  126  A    between atoms: _292  and  _293
REMARK  127  A    between atoms: _296  and  _298
REMARK  128  A    between atoms: _298  and  _299
REMARK  129  A    between atoms: _298  and  _301
REMARK  130  A    between atoms: _301  and  _302
REMARK  131  A    between atoms: _302  and  _303
REMARK  132  A    between atoms: _308  and  _310
REMARK  133  A    between atoms: _310  and  _311
REMARK  134  A    between atoms: _310  and  _313
REMARK  135  A    between atoms: _313  and  _314
REMARK  136  A    between atoms: _317  and  _319
REMARK  137  A    between atoms: _319  and  _320
REMARK  138  A    between atoms: _319  and  _322
REMARK  139  A    between atoms: _322  and  _323
REMARK  140  A    between atoms: _323  and  _324
REMARK  141  A    between atoms: _329  and  _331
REMARK  142  A    between atoms: _331  and  _332
REMARK  143  A    between atoms: _331  and  _334
REMARK  144  A    between atoms: _334  and  _335
REMARK  145  A    between atoms: _341  and  _343
REMARK  146  A    between atoms: _343  and  _344
REMARK  147  A    between atoms: _343  and  _346
REMARK  148  A    between atoms: _348  and  _350
REMARK  149  A    between atoms: _350  and  _351
REMARK  150  A    between atoms: _350  and  _353
REMARK  151  A    between atoms: _353  and  _354
REMARK  152  A    between atoms: _354  and  _355
REMARK  153  A    between atoms: _357  and  _359
REMARK  154  A    between atoms: _359  and  _360
REMARK  155  A    between atoms: _359  and  _362
REMARK  156  A    between atoms: _362  and  _363
REMARK  157  A    between atoms: _368  and  _370
REMARK  158  A    between atoms: _370  and  _371
REMARK  159  A    between atoms: _374  and  _376
REMARK  160  A    between atoms: _376  and  _377
REMARK  161  A    between atoms: _376  and  _379
REMARK  162  A    between atoms: _382  and  _384
REMARK  163  A    between atoms: _384  and  _385
REMARK  164  A    between atoms: _384  and  _387
REMARK  165  A    between atoms: _387  and  _388
REMARK  166  A    between atoms: _391  and  _393
REMARK  167  A    between atoms: _393  and  _394
REMARK  168  A    between atoms: _393  and  _396
REMARK  169  A    between atoms: _396  and  _397
REMARK  170  A    between atoms: _399  and  _401
REMARK  171  A    between atoms: _401  and  _402
REMARK  172  A    between atoms: _401  and  _404
REMARK  173  A    between atoms: _404  and  _405
REMARK  174  A    between atoms: _415  and  _417
REMARK  175  A    between atoms: _417  and  _418
REMARK  176  A    between atoms: _417  and  _420
REMARK  177  A    between atoms: _420  and  _421
REMARK  178  A    between atoms: _423  and  _425
REMARK  179  A    between atoms: _425  and  _426
REMARK  180  A    between atoms: _425  and  _428
REMARK  181  A    between atoms: _428  and  _429
REMARK  182  A    between atoms: _429  and  _430
REMARK  183  A    between atoms: _433  and  _435
REMARK  184  A    between atoms: _435  and  _436
REMARK  185  A    between atoms: _435  and  _438
REMARK  186  A    between atoms: _438  and  _439
REMARK  187  A    between atoms: _439  and  _440
REMARK  188  A    between atoms: _440  and  _441
REMARK                            x       y       z     vdW  Elec       q    Type
REMARK                         _______ _______ _______ _____ _____    ______ ____
ROOT
ATOM      1  C   SER A   1      -1.096 -31.943 -25.507  0.00  0.00    +0.241 C 
ATOM      2  N   HIS A   2      -1.486 -32.588 -24.414  0.00  0.00    -0.298 N 
ATOM      3  H   HIS A   2      -1.681 -33.604 -24.524  0.00  0.00    +0.150 HD
ATOM      4  O   SER A   1      -0.846 -32.538 -26.559  0.00  0.00    -0.274 OA
ENDROOT
BRANCH   1   5
ATOM      5  CA  SER A   1      -1.024 -30.449 -25.473  0.00  0.00    +0.174 C 
BRANCH   5   6
ATOM      6  N   SER A   1       0.342 -30.043 -25.809  0.00  0.00    -0.236 NA
ATOM      7  H   SER A   1       0.554 -29.635 -26.742  0.00  0.00    +0.142 HD
ENDBRANCH   5   6
BRANCH   5   8
ATOM      8  CB  SER A   1      -1.990 -29.933 -26.548  0.00  0.00    +0.163 C 
BRANCH   8   9
ATOM      9  OG  SER A   1      -1.414 -30.214 -27.822  0.00  0.00    -0.380 OA
ATOM     10  H   SER A   1      -1.284 -31.191 -27.916  0.00  0.00    +0.211 HD
ENDBRANCH   8   9
ENDBRANCH   5   8
ENDBRANCH   1   5
BRANCH   2  11
ATOM     11  CA  HIS A   2      -1.674 -32.031 -23.063  0.00  0.00    +0.143 C 
BRANCH  11  12
ATOM     12  C   HIS A   2      -0.932 -32.998 -22.056  0.00  0.00    +0.227 C 
ATOM     13  O   HIS A   2      -1.557 -33.701 -21.229  0.00  0.00    -0.286 OA
ENDBRANCH  11  12
BRANCH  11  14
ATOM     14  CB  HIS A   2      -3.150 -31.996 -22.722  0.00  0.00    +0.075 C 
BRANCH  14  15
ATOM     15  CG  HIS A   2      -3.938 -31.191 -23.697  0.00  0.00    +0.082 A 
ATOM     16  ND1 HIS A   2      -3.846 -29.805 -23.717  0.00  0.00    -0.227 NA
ATOM     17  CE1 HIS A   2      -4.693 -29.368 -24.664  0.00  0.00    +0.199 A 
ATOM     18  NE2 HIS A   2      -5.344 -30.427 -25.194  0.00  0.00    -0.221 NA
ATOM     19  CD2 HIS A   2      -4.872 -31.593 -24.606  0.00  0.00    +0.115 A 
ENDBRANCH  14  15
ENDBRANCH  11  14
ENDBRANCH   2  11
TORSDOF 8
REMARK  Name = ../refined-set-2016/1px4/1px4_pocket.pdb
REMARK  188 active torsions:
REMARK  status: ('A' for Active; 'I' for Inactive)
REMARK    1  A    between atoms: _1  and  _3
REMARK    2  A    between atoms: _3  and  _4
REMARK    3  A    between atoms: _3  and  _6
REMARK    4  A    between atoms: _6  and  _7
REMARK    5  A    between atoms: _12  and  _13
REMARK    6  A    between atoms: _15  and  _17
REMARK    7  A    between atoms: _17  and  _18
REMARK    8  A    between atoms: _17  and  _20
REMARK    9  A    between atoms: _20  and  _21
REMARK   10  A    between atoms: _26  and  _28
REMARK   11  A    between atoms: _28  and  _29
REMARK   12  A    between atoms: _28  and  _31
REMARK   13  A    between atoms: _34  and  _36
REMARK   14  A    between atoms: _36  and  _37
REMARK   15  A    between atoms: _36  and  _39
REMARK   16  A    between atoms: _39  and  _40
REMARK   17  A    between atoms: _43  and  _45
REMARK   18  A    between atoms: _45  and  _46
REMARK   19  A    between atoms: _45  and  _48
REMARK   20  A    between atoms: _48  and  _49
REMARK   21  A    between atoms: _49  and  _50
REMARK   22  A    between atoms: _55  and  _57
REMARK   23  A    between atoms: _57  and  _58
REMARK   24  A    between atoms: _57  and  _60
REMARK   25  A    between atoms: _60  and  _61
REMARK   26  A    between atoms: _64  and  _66
REMARK   27  A    between atoms: _66  and  _67
REMARK   28  A    between atoms: _66  and  _69
REMARK   29  A    between atoms: _69  and  _70
REMARK   30  A    between atoms: _70  and  _71
REMARK   31  A    between atoms: _73  and  _75
REMARK   32  A    between atoms: _75  and  _76
REMARK   33  A    between atoms: _75  and  _78
REMARK   34  A    between atoms: _78  and  _79
REMARK   35  A    between atoms: _84  and  _86
REMARK   36  A    between atoms: _86  and  _87
REMARK   37  A    between atoms: _86  and  _89
REMARK   38  A    between atoms: _89  and  _90
REMARK   39  A    between atoms: _95  and  _97
REMARK   40  A    between atoms: _97  and  _98
REMARK   41  A    between atoms: _97  and  _100
REMARK   42  A    between atoms: _100  and  _101
REMARK   43  A    between atoms: _101  and  _102
REMARK   44  A    between atoms: _102  and  _103
REMARK   45  A    between atoms: _112  and  _114
REMARK   46  A    between atoms: _114  and  _115
REMARK   47  A    between atoms: _114  and  _117
REMARK   48  A    between atoms: _117  and  _118
REMARK   49  A    between atoms: _120  and  _122
REMARK   50  A    between atoms: _122  and  _123
REMARK   51  A    between atoms: _122  and  _125
REMARK   52  A    between atoms: _125  and  _126
REMARK   53  A    between atoms: _131  and  _133
REMARK   54  A    between atoms: _133  and  _134
REMARK   55  A    between atoms: _133  and  _136
REMARK   56  A    between atoms: _136  and  _137
REMARK   57  A    between atoms: _137  and  _138
REMARK   58  A    between atoms: _141  and  _143
REMARK   59  A    between atoms: _143  and  _144
REMARK   60  A    between atoms: _143  and  _146
REMARK   61  A    between atoms: _146  and  _147
REMARK   62  A    between atoms: _152  and  _154
REMARK   63  A    between atoms: _154  and  _155
REMARK   64  A    between atoms: _154  and  _157
REMARK   65  A    between atoms: _157  and  _158
REMARK   66  A    between atoms: _158  and  _159
REMARK   67  A    between atoms: _161  and  _163
REMARK   68  A    between atoms: _163  and  _164
REMARK   69  A    between atoms: _163  and  _166
REMARK   70  A    between atoms: _166  and  _167
REMARK   71  A    between atoms: _172  and  _174
REMARK   72  A    between atoms: _174  and  _175
REMARK   73  A    between atoms: _174  and  _177
REMARK   74  A    between atoms: _177  and  _178
REMARK   75  A    between atoms: _178  and  _179
REMARK   76  A    between atoms: _179  and  _180
REMARK   77  A    between atoms: _180  and  MG_450
REMARK   78  A    between atoms: _182  and  _184
REMARK   79  A    between atoms: _184  and  _185
REMARK   80  A    between atoms: _184  and  _187
REMARK   81  A    between atoms: _187  and  _188
REMARK   82  A    between atoms: _188  and  _189
REMARK   83  A    between atoms: _192  and  _194
REMARK   84  A    between atoms: _194  and  _195
REMARK   85  A    between atoms: _194  and  _197
REMARK   86  A    between atoms: _197  and  _198
REMARK   87  A    between atoms: _198  and  _199
REMARK   88  A    between atoms: _201  and  _203
REMARK   89  A    between atoms: _203  and  _204
REMARK   90  A    between atoms: _203  and  _206
REMARK   91  A    between atoms: _206  and  _207
REMARK   92  A    between atoms: _212  and  _213
REMARK   93  A    between atoms: _215  and  _217
REMARK   94  A    between atoms: _217  and  _218
REMARK   95  A    between atoms: _217  and  _220
REMARK   96  A    between atoms: _220  and  _221
REMARK   97  A    between atoms: _221  and  _222
REMARK   98  A    between atoms: _222  and  _223
REMARK   99  A    between atoms: _223  and  _224
REMARK  100  A    between atoms: _228  and  _230
REMARK  101  A    between atoms: _230  and  _231
REMARK  102  A    between atoms: _230  and  _233
REMARK  103  A    between atoms: _235  and  _237
REMARK  104  A    between atoms: _237  and  _238
REMARK  105  A    between atoms: _237  and  _240
REMARK  106  A    between atoms: _240  and  _241
REMARK  107  A    between atoms: _241  and  _242
REMARK  108  A    between atoms: _245  and  _247
REMARK  109  A    between atoms: _247  and  _248
REMARK  110  A    between atoms: _247  and  _250
REMARK  111  A    between atoms: _250  and  _251
REMARK  112  A    between atoms: _256  and  _258
REMARK  113  A    between atoms: _258  and  _259
REMARK  114  A    between atoms: _262  and  _264
REMARK  115  A    between atoms: _264  and  _265
REMARK  116  A    between atoms: _264  and  _267
REMARK  117  A    between atoms: _267  and  _268
REMARK  118  A    between atoms: _268  and  _269
REMARK  119  A    between atoms: _271  and  _273
REMARK  120  A    between atoms: _273  and  _274
REMARK  121  A    between atoms: _273  and  _276
REMARK  122  A    between atoms: _276  and  _277
REMARK  123  A    between atoms: _287  and  _289
REMARK  124  A    between atoms: _289  and  _290
REMARK  125  A    between atoms: _289  and  _292
REMARK  126  A    between atoms: _292  and  _293
REMARK  127  A    between atoms: _296  and  _298
REMARK  128  A    between atoms: _298  and  _299
REMARK  129  A    between atoms: _298  and  _301
REMARK  130  A    between atoms: _301  and  _302
REMARK  131  A    between atoms: _302  and  _303
REMARK  132  A    between atoms: _308  and  _310
REMARK  133  A    between atoms: _310  and  _311
REMARK  134  A    between atoms: _310  and  _313
REMARK  135  A    between atoms: _313  and  _314
REMARK  136  A    between atoms: _317  and  _319
REMARK  137  A    between atoms: _319  and  _320
REMARK  138  A    between atoms: _319  and  _322
REMARK  139  A    between atoms: _322  and  _323
REMARK  140  A    between atoms: _323  and  _324
REMARK  141  A    between atoms: _329  and  _331
REMARK  142  A    between atoms: _331  and  _332
REMARK  143  A    between atoms: _331  and  _334
REMARK  144  A    between atoms: _334  and  _335
REMARK  145  A    between atoms: _341  and  _343
REMARK  146  A    between atoms: _343  and  _344
REMARK  147  A    between atoms: _343  and  _346
REMARK  148  A    between atoms: _348  and  _350
REMARK  149  A    between atoms: _350  and  _351
REMARK  150  A    between atoms: _350  and  _353
REMARK  151  A    between atoms: _353  and  _354
REMARK  152  A    between atoms: _354  and  _355
REMARK  153  A    between atoms: _357  and  _359
REMARK  154  A    between atoms: _359  and  _360
REMARK  155  A    between atoms: _359  and  _362
REMARK  156  A    between atoms: _362  and  _363
REMARK  157  A    between atoms: _368  and  _370
REMARK  158  A    between atoms: _370  and  _371
REMARK  159  A    between atoms: _374  and  _376
REMARK  160  A    between atoms: _376  and  _377
REMARK  161  A    between atoms: _376  and  _379
REMARK  162  A    between atoms: _382  and  _384
REMARK  163  A    between atoms: _384  and  _385
REMARK  164  A    between atoms: _384  and  _387
REMARK  165  A    between atoms: _387  and  _388
REMARK  166  A    between atoms: _391  and  _393
REMARK  167  A    between atoms: _393  and  _394
REMARK  168  A    between atoms: _393  and  _396
REMARK  169  A    between atoms: _396  and  _397
REMARK  170  A    between atoms: _399  and  _401
REMARK  171  A    between atoms: _401  and  _402
REMARK  172  A    between atoms: _401  and  _404
REMARK  173  A    between atoms: _404  and  _405
REMARK  174  A    between atoms: _415  and  _417
REMARK  175  A    between atoms: _417  and  _418
REMARK  176  A    between atoms: _417  and  _420
REMARK  177  A    between atoms: _420  and  _421
REMARK  178  A    between atoms: _423  and  _425
REMARK  179  A    between atoms: _425  and  _426
REMARK  180  A    between atoms: _425  and  _428
REMARK  181  A    between atoms: _428  and  _429
REMARK  182  A    between atoms: _429  and  _430
REMARK  183  A    between atoms: _433  and  _435
REMARK  184  A    between atoms: _435  and  _436
REMARK  185  A    between atoms: _435  and  _438
REMARK  186  A    between atoms: _438  and  _439
REMARK  187  A    between atoms: _439  and  _440
REMARK  188  A    between atoms: _440  and  _441
REMARK                            x       y       z     vdW  Elec       q    Type
REMARK                         _______ _______ _______ _____ _____    ______ ____
ROOT
ATOM      1  CA  GLU A   1      -7.114 -34.081 -18.086  0.00  0.00    +0.134 C 
ENDROOT
BRANCH   1   2
ATOM      2  N   GLU A   1      -5.929 -34.582 -17.396  0.00  0.00    -0.239 NA
ATOM      3  H   GLU A   1      -5.835 -35.599 -17.198  0.00  0.00    +0.142 HD
ENDBRANCH   1   2
BRANCH   1   4
ATOM      4  C   GLU A   1      -8.305 -34.930 -17.662  0.00  0.00    +0.224 C 
ATOM      5  O   GLU A   1      -8.264 -36.165 -17.883  0.00  0.00    -0.287 OA
ENDBRANCH   1   4
BRANCH   1   6
ATOM      6  CB  GLU A   1      -7.074 -34.103 -19.660  0.00  0.00    +0.037 C 
BRANCH   6   7
ATOM      7  CG  GLU A   1      -8.448 -33.618 -20.190  0.00  0.00    +0.116 C 
BRANCH   7   8
ATOM      8  CD  GLU A   1      -8.381 -33.113 -21.612  0.00  0.00    +0.365 C 
ATOM      9  OE2 GLU A   1      -9.583 -32.942 -22.049  0.00  0.00    -0.246 OA
ATOM     10  OE1 GLU A   1      -7.381 -32.789 -22.258  0.00  0.00    -0.246 OA
ENDBRANCH   7   8
ENDBRANCH   6   7
ENDBRANCH   1   6
TORSDOF 5
REMARK  Name = ../refined-set-2016/1px4/1px4_pocket.pdb
REMARK  188 active torsions:
REMARK  status: ('A' for Active; 'I' for Inactive)
REMARK    1  A    between atoms: _1  and  _3
REMARK    2  A    between atoms: _3  and  _4
REMARK    3  A    between atoms: _3  and  _6
REMARK    4  A    between atoms: _6  and  _7
REMARK    5  A    between atoms: _12  and  _13
REMARK    6  A    between atoms: _15  and  _17
REMARK    7  A    between atoms: _17  and  _18
REMARK    8  A    between atoms: _17  and  _20
REMARK    9  A    between atoms: _20  and  _21
REMARK   10  A    between atoms: _26  and  _28
REMARK   11  A    between atoms: _28  and  _29
REMARK   12  A    between atoms: _28  and  _31
REMARK   13  A    between atoms: _34  and  _36
REMARK   14  A    between atoms: _36  and  _37
REMARK   15  A    between atoms: _36  and  _39
REMARK   16  A    between atoms: _39  and  _40
REMARK   17  A    between atoms: _43  and  _45
REMARK   18  A    between atoms: _45  and  _46
REMARK   19  A    between atoms: _45  and  _48
REMARK   20  A    between atoms: _48  and  _49
REMARK   21  A    between atoms: _49  and  _50
REMARK   22  A    between atoms: _55  and  _57
REMARK   23  A    between atoms: _57  and  _58
REMARK   24  A    between atoms: _57  and  _60
REMARK   25  A    between atoms: _60  and  _61
REMARK   26  A    between atoms: _64  and  _66
REMARK   27  A    between atoms: _66  and  _67
REMARK   28  A    between atoms: _66  and  _69
REMARK   29  A    between atoms: _69  and  _70
REMARK   30  A    between atoms: _70  and  _71
REMARK   31  A    between atoms: _73  and  _75
REMARK   32  A    between atoms: _75  and  _76
REMARK   33  A    between atoms: _75  and  _78
REMARK   34  A    between atoms: _78  and  _79
REMARK   35  A    between atoms: _84  and  _86
REMARK   36  A    between atoms: _86  and  _87
REMARK   37  A    between atoms: _86  and  _89
REMARK   38  A    between atoms: _89  and  _90
REMARK   39  A    between atoms: _95  and  _97
REMARK   40  A    between atoms: _97  and  _98
REMARK   41  A    between atoms: _97  and  _100
REMARK   42  A    between atoms: _100  and  _101
REMARK   43  A    between atoms: _101  and  _102
REMARK   44  A    between atoms: _102  and  _103
REMARK   45  A    between atoms: _112  and  _114
REMARK   46  A    between atoms: _114  and  _115
REMARK   47  A    between atoms: _114  and  _117
REMARK   48  A    between atoms: _117  and  _118
REMARK   49  A    between atoms: _120  and  _122
REMARK   50  A    between atoms: _122  and  _123
REMARK   51  A    between atoms: _122  and  _125
REMARK   52  A    between atoms: _125  and  _126
REMARK   53  A    between atoms: _131  and  _133
REMARK   54  A    between atoms: _133  and  _134
REMARK   55  A    between atoms: _133  and  _136
REMARK   56  A    between atoms: _136  and  _137
REMARK   57  A    between atoms: _137  and  _138
REMARK   58  A    between atoms: _141  and  _143
REMARK   59  A    between atoms: _143  and  _144
REMARK   60  A    between atoms: _143  and  _146
REMARK   61  A    between atoms: _146  and  _147
REMARK   62  A    between atoms: _152  and  _154
REMARK   63  A    between atoms: _154  and  _155
REMARK   64  A    between atoms: _154  and  _157
REMARK   65  A    between atoms: _157  and  _158
REMARK   66  A    between atoms: _158  and  _159
REMARK   67  A    between atoms: _161  and  _163
REMARK   68  A    between atoms: _163  and  _164
REMARK   69  A    between atoms: _163  and  _166
REMARK   70  A    between atoms: _166  and  _167
REMARK   71  A    between atoms: _172  and  _174
REMARK   72  A    between atoms: _174  and  _175
REMARK   73  A    between atoms: _174  and  _177
REMARK   74  A    between atoms: _177  and  _178
REMARK   75  A    between atoms: _178  and  _179
REMARK   76  A    between atoms: _179  and  _180
REMARK   77  A    between atoms: _180  and  MG_450
REMARK   78  A    between atoms: _182  and  _184
REMARK   79  A    between atoms: _184  and  _185
REMARK   80  A    between atoms: _184  and  _187
REMARK   81  A    between atoms: _187  and  _188
REMARK   82  A    between atoms: _188  and  _189
REMARK   83  A    between atoms: _192  and  _194
REMARK   84  A    between atoms: _194  and  _195
REMARK   85  A    between atoms: _194  and  _197
REMARK   86  A    between atoms: _197  and  _198
REMARK   87  A    between atoms: _198  and  _199
REMARK   88  A    between atoms: _201  and  _203
REMARK   89  A    between atoms: _203  and  _204
REMARK   90  A    between atoms: _203  and  _206
REMARK   91  A    between atoms: _206  and  _207
REMARK   92  A    between atoms: _212  and  _213
REMARK   93  A    between atoms: _215  and  _217
REMARK   94  A    between atoms: _217  and  _218
REMARK   95  A    between atoms: _217  and  _220
REMARK   96  A    between atoms: _220  and  _221
REMARK   97  A    between atoms: _221  and  _222
REMARK   98  A    between atoms: _222  and  _223
REMARK   99  A    between atoms: _223  and  _224
REMARK  100  A    between atoms: _228  and  _230
REMARK  101  A    between atoms: _230  and  _231
REMARK  102  A    between atoms: _230  and  _233
REMARK  103  A    between atoms: _235  and  _237
REMARK  104  A    between atoms: _237  and  _238
REMARK  105  A    between atoms: _237  and  _240
REMARK  106  A    between atoms: _240  and  _241
REMARK  107  A    between atoms: _241  and  _242
REMARK  108  A    between atoms: _245  and  _247
REMARK  109  A    between atoms: _247  and  _248
REMARK  110  A    between atoms: _247  and  _250
REMARK  111  A    between atoms: _250  and  _251
REMARK  112  A    between atoms: _256  and  _258
REMARK  113  A    between atoms: _258  and  _259
REMARK  114  A    between atoms: _262  and  _264
REMARK  115  A    between atoms: _264  and  _265
REMARK  116  A    between atoms: _264  and  _267
REMARK  117  A    between atoms: _267  and  _268
REMARK  118  A    between atoms: _268  and  _269
REMARK  119  A    between atoms: _271  and  _273
REMARK  120  A    between atoms: _273  and  _274
REMARK  121  A    between atoms: _273  and  _276
REMARK  122  A    between atoms: _276  and  _277
REMARK  123  A    between atoms: _287  and  _289
REMARK  124  A    between atoms: _289  and  _290
REMARK  125  A    between atoms: _289  and  _292
REMARK  126  A    between atoms: _292  and  _293
REMARK  127  A    between atoms: _296  and  _298
REMARK  128  A    between atoms: _298  and  _299
REMARK  129  A    between atoms: _298  and  _301
REMARK  130  A    between atoms: _301  and  _302
REMARK  131  A    between atoms: _302  and  _303
REMARK  132  A    between atoms: _308  and  _310
REMARK  133  A    between atoms: _310  and  _311
REMARK  134  A    between atoms: _310  and  _313
REMARK  135  A    between atoms: _313  and  _314
REMARK  136  A    between atoms: _317  and  _319
REMARK  137  A    between atoms: _319  and  _320
REMARK  138  A    between atoms: _319  and  _322
REMARK  139  A    between atoms: _322  and  _323
REMARK  140  A    between atoms: _323  and  _324
REMARK  141  A    between atoms: _329  and  _331
REMARK  142  A    between atoms: _331  and  _332
REMARK  143  A    between atoms: _331  and  _334
REMARK  144  A    between atoms: _334  and  _335
REMARK  145  A    between atoms: _341  and  _343
REMARK  146  A    between atoms: _343  and  _344
REMARK  147  A    between atoms: _343  and  _346
REMARK  148  A    between atoms: _348  and  _350
REMARK  149  A    between atoms: _350  and  _351
REMARK  150  A    between atoms: _350  and  _353
REMARK  151  A    between atoms: _353  and  _354
REMARK  152  A    between atoms: _354  and  _355
REMARK  153  A    between atoms: _357  and  _359
REMARK  154  A    between atoms: _359  and  _360
REMARK  155  A    between atoms: _359  and  _362
REMARK  156  A    between atoms: _362  and  _363
REMARK  157  A    between atoms: _368  and  _370
REMARK  158  A    between atoms: _370  and  _371
REMARK  159  A    between atoms: _374  and  _376
REMARK  160  A    between atoms: _376  and  _377
REMARK  161  A    between atoms: _376  and  _379
REMARK  162  A    between atoms: _382  and  _384
REMARK  163  A    between atoms: _384  and  _385
REMARK  164  A    between atoms: _384  and  _387
REMARK  165  A    between atoms: _387  and  _388
REMARK  166  A    between atoms: _391  and  _393
REMARK  167  A    between atoms: _393  and  _394
REMARK  168  A    between atoms: _393  and  _396
REMARK  169  A    between atoms: _396  and  _397
REMARK  170  A    between atoms: _399  and  _401
REMARK  171  A    between atoms: _401  and  _402
REMARK  172  A    between atoms: _401  and  _404
REMARK  173  A    between atoms: _404  and  _405
REMARK  174  A    between atoms: _415  and  _417
REMARK  175  A    between atoms: _417  and  _418
REMARK  176  A    between atoms: _417  and  _420
REMARK  177  A    between atoms: _420  and  _421
REMARK  178  A    between atoms: _423  and  _425
REMARK  179  A    between atoms: _425  and  _426
REMARK  180  A    between atoms: _425  and  _428
REMARK  181  A    between atoms: _428  and  _429
REMARK  182  A    between atoms: _429  and  _430
REMARK  183  A    between atoms: _433  and  _435
REMARK  184  A    between atoms: _435  and  _436
REMARK  185  A    between atoms: _435  and  _438
REMARK  186  A    between atoms: _438  and  _439
REMARK  187  A    between atoms: _439  and  _440
REMARK  188  A    between atoms: _440  and  _441
REMARK                            x       y       z     vdW  Elec       q    Type
REMARK                         _______ _______ _______ _____ _____    ______ ____
ROOT
ATOM      1  CB  HIS A   1     -12.406 -33.299 -20.701  0.00  0.00    +0.072 C 
ENDROOT
BRANCH   1   2
ATOM      2  CG  HIS A   1     -13.024 -32.193 -21.505  0.00  0.00    +0.082 A 
ATOM      3  CD2 HIS A   1     -14.138 -31.433 -21.254  0.00  0.00    +0.115 A 
ATOM      4  NE2 HIS A   1     -14.252 -30.512 -22.297  0.00  0.00    -0.221 NA
ATOM      5  CE1 HIS A   1     -13.185 -30.715 -23.125  0.00  0.00    +0.199 A 
ATOM      6  ND1 HIS A   1     -12.442 -31.762 -22.708  0.00  0.00    -0.227 NA
ENDBRANCH   1   2
BRANCH   1   7
ATOM      7  CA  HIS A   1     -12.788 -33.372 -19.193  0.00  0.00    +0.139 C 
BRANCH   7   8
ATOM      8  N   HIS A   1     -11.719 -34.090 -18.518  0.00  0.00    -0.239 NA
ATOM      9  H   HIS A   1     -10.844 -34.298 -19.040  0.00  0.00    +0.142 HD
ENDBRANCH   7   8
BRANCH   7  10
ATOM     10  C   HIS A   1     -14.141 -34.043 -19.018  0.00  0.00    +0.224 C 
ATOM     11  O   HIS A   1     -15.142 -33.357 -18.919  0.00  0.00    -0.287 OA
ENDBRANCH   7  10
ENDBRANCH   1   7
TORSDOF 4
REMARK  Name = ../refined-set-2016/1px4/1px4_pocket.pdb
REMARK  188 active torsions:
REMARK  status: ('A' for Active; 'I' for Inactive)
REMARK    1  A    between atoms: _1  and  _3
REMARK    2  A    between atoms: _3  and  _4
REMARK    3  A    between atoms: _3  and  _6
REMARK    4  A    between atoms: _6  and  _7
REMARK    5  A    between atoms: _12  and  _13
REMARK    6  A    between atoms: _15  and  _17
REMARK    7  A    between atoms: _17  and  _18
REMARK    8  A    between atoms: _17  and  _20
REMARK    9  A    between atoms: _20  and  _21
REMARK   10  A    between atoms: _26  and  _28
REMARK   11  A    between atoms: _28  and  _29
REMARK   12  A    between atoms: _28  and  _31
REMARK   13  A    between atoms: _34  and  _36
REMARK   14  A    between atoms: _36  and  _37
REMARK   15  A    between atoms: _36  and  _39
REMARK   16  A    between atoms: _39  and  _40
REMARK   17  A    between atoms: _43  and  _45
REMARK   18  A    between atoms: _45  and  _46
REMARK   19  A    between atoms: _45  and  _48
REMARK   20  A    between atoms: _48  and  _49
REMARK   21  A    between atoms: _49  and  _50
REMARK   22  A    between atoms: _55  and  _57
REMARK   23  A    between atoms: _57  and  _58
REMARK   24  A    between atoms: _57  and  _60
REMARK   25  A    between atoms: _60  and  _61
REMARK   26  A    between atoms: _64  and  _66
REMARK   27  A    between atoms: _66  and  _67
REMARK   28  A    between atoms: _66  and  _69
REMARK   29  A    between atoms: _69  and  _70
REMARK   30  A    between atoms: _70  and  _71
REMARK   31  A    between atoms: _73  and  _75
REMARK   32  A    between atoms: _75  and  _76
REMARK   33  A    between atoms: _75  and  _78
REMARK   34  A    between atoms: _78  and  _79
REMARK   35  A    between atoms: _84  and  _86
REMARK   36  A    between atoms: _86  and  _87
REMARK   37  A    between atoms: _86  and  _89
REMARK   38  A    between atoms: _89  and  _90
REMARK   39  A    between atoms: _95  and  _97
REMARK   40  A    between atoms: _97  and  _98
REMARK   41  A    between atoms: _97  and  _100
REMARK   42  A    between atoms: _100  and  _101
REMARK   43  A    between atoms: _101  and  _102
REMARK   44  A    between atoms: _102  and  _103
REMARK   45  A    between atoms: _112  and  _114
REMARK   46  A    between atoms: _114  and  _115
REMARK   47  A    between atoms: _114  and  _117
REMARK   48  A    between atoms: _117  and  _118
REMARK   49  A    between atoms: _120  and  _122
REMARK   50  A    between atoms: _122  and  _123
REMARK   51  A    between atoms: _122  and  _125
REMARK   52  A    between atoms: _125  and  _126
REMARK   53  A    between atoms: _131  and  _133
REMARK   54  A    between atoms: _133  and  _134
REMARK   55  A    between atoms: _133  and  _136
REMARK   56  A    between atoms: _136  and  _137
REMARK   57  A    between atoms: _137  and  _138
REMARK   58  A    between atoms: _141  and  _143
REMARK   59  A    between atoms: _143  and  _144
REMARK   60  A    between atoms: _143  and  _146
REMARK   61  A    between atoms: _146  and  _147
REMARK   62  A    between atoms: _152  and  _154
REMARK   63  A    between atoms: _154  and  _155
REMARK   64  A    between atoms: _154  and  _157
REMARK   65  A    between atoms: _157  and  _158
REMARK   66  A    between atoms: _158  and  _159
REMARK   67  A    between atoms: _161  and  _163
REMARK   68  A    between atoms: _163  and  _164
REMARK   69  A    between atoms: _163  and  _166
REMARK   70  A    between atoms: _166  and  _167
REMARK   71  A    between atoms: _172  and  _174
REMARK   72  A    between atoms: _174  and  _175
REMARK   73  A    between atoms: _174  and  _177
REMARK   74  A    between atoms: _177  and  _178
REMARK   75  A    between atoms: _178  and  _179
REMARK   76  A    between atoms: _179  and  _180
REMARK   77  A    between atoms: _180  and  MG_450
REMARK   78  A    between atoms: _182  and  _184
REMARK   79  A    between atoms: _184  and  _185
REMARK   80  A    between atoms: _184  and  _187
REMARK   81  A    between atoms: _187  and  _188
REMARK   82  A    between atoms: _188  and  _189
REMARK   83  A    between atoms: _192  and  _194
REMARK   84  A    between atoms: _194  and  _195
REMARK   85  A    between atoms: _194  and  _197
REMARK   86  A    between atoms: _197  and  _198
REMARK   87  A    between atoms: _198  and  _199
REMARK   88  A    between atoms: _201  and  _203
REMARK   89  A    between atoms: _203  and  _204
REMARK   90  A    between atoms: _203  and  _206
REMARK   91  A    between atoms: _206  and  _207
REMARK   92  A    between atoms: _212  and  _213
REMARK   93  A    between atoms: _215  and  _217
REMARK   94  A    between atoms: _217  and  _218
REMARK   95  A    between atoms: _217  and  _220
REMARK   96  A    between atoms: _220  and  _221
REMARK   97  A    between atoms: _221  and  _222
REMARK   98  A    between atoms: _222  and  _223
REMARK   99  A    between atoms: _223  and  _224
REMARK  100  A    between atoms: _228  and  _230
REMARK  101  A    between atoms: _230  and  _231
REMARK  102  A    between atoms: _230  and  _233
REMARK  103  A    between atoms: _235  and  _237
REMARK  104  A    between atoms: _237  and  _238
REMARK  105  A    between atoms: _237  and  _240
REMARK  106  A    between atoms: _240  and  _241
REMARK  107  A    between atoms: _241  and  _242
REMARK  108  A    between atoms: _245  and  _247
REMARK  109  A    between atoms: _247  and  _248
REMARK  110  A    between atoms: _247  and  _250
REMARK  111  A    between atoms: _250  and  _251
REMARK  112  A    between atoms: _256  and  _258
REMARK  113  A    between atoms: _258  and  _259
REMARK  114  A    between atoms: _262  and  _264
REMARK  115  A    between atoms: _264  and  _265
REMARK  116  A    between atoms: _264  and  _267
REMARK  117  A    between atoms: _267  and  _268
REMARK  118  A    between atoms: _268  and  _269
REMARK  119  A    between atoms: _271  and  _273
REMARK  120  A    between atoms: _273  and  _274
REMARK  121  A    between atoms: _273  and  _276
REMARK  122  A    between atoms: _276  and  _277
REMARK  123  A    between atoms: _287  and  _289
REMARK  124  A    between atoms: _289  and  _290
REMARK  125  A    between atoms: _289  and  _292
REMARK  126  A    between atoms: _292  and  _293
REMARK  127  A    between atoms: _296  and  _298
REMARK  128  A    between atoms: _298  and  _299
REMARK  129  A    between atoms: _298  and  _301
REMARK  130  A    between atoms: _301  and  _302
REMARK  131  A    between atoms: _302  and  _303
REMARK  132  A    between atoms: _308  and  _310
REMARK  133  A    between atoms: _310  and  _311
REMARK  134  A    between atoms: _310  and  _313
REMARK  135  A    between atoms: _313  and  _314
REMARK  136  A    between atoms: _317  and  _319
REMARK  137  A    between atoms: _319  and  _320
REMARK  138  A    between atoms: _319  and  _322
REMARK  139  A    between atoms: _322  and  _323
REMARK  140  A    between atoms: _323  and  _324
REMARK  141  A    between atoms: _329  and  _331
REMARK  142  A    between atoms: _331  and  _332
REMARK  143  A    between atoms: _331  and  _334
REMARK  144  A    between atoms: _334  and  _335
REMARK  145  A    between atoms: _341  and  _343
REMARK  146  A    between atoms: _343  and  _344
REMARK  147  A    between atoms: _343  and  _346
REMARK  148  A    between atoms: _348  and  _350
REMARK  149  A    between atoms: _350  and  _351
REMARK  150  A    between atoms: _350  and  _353
REMARK  151  A    between atoms: _353  and  _354
REMARK  152  A    between atoms: _354  and  _355
REMARK  153  A    between atoms: _357  and  _359
REMARK  154  A    between atoms: _359  and  _360
REMARK  155  A    between atoms: _359  and  _362
REMARK  156  A    between atoms: _362  and  _363
REMARK  157  A    between atoms: _368  and  _370
REMARK  158  A    between atoms: _370  and  _371
REMARK  159  A    between atoms: _374  and  _376
REMARK  160  A    between atoms: _376  and  _377
REMARK  161  A    between atoms: _376  and  _379
REMARK  162  A    between atoms: _382  and  _384
REMARK  163  A    between atoms: _384  and  _385
REMARK  164  A    between atoms: _384  and  _387
REMARK  165  A    between atoms: _387  and  _388
REMARK  166  A    between atoms: _391  and  _393
REMARK  167  A    between atoms: _393  and  _394
REMARK  168  A    between atoms: _393  and  _396
REMARK  169  A    between atoms: _396  and  _397
REMARK  170  A    between atoms: _399  and  _401
REMARK  171  A    between atoms: _401  and  _402
REMARK  172  A    between atoms: _401  and  _404
REMARK  173  A    between atoms: _404  and  _405
REMARK  174  A    between atoms: _415  and  _417
REMARK  175  A    between atoms: _417  and  _418
REMARK  176  A    between atoms: _417  and  _420
REMARK  177  A    between atoms: _420  and  _421
REMARK  178  A    between atoms: _423  and  _425
REMARK  179  A    between atoms: _425  and  _426
REMARK  180  A    between atoms: _425  and  _428
REMARK  181  A    between atoms: _428  and  _429
REMARK  182  A    between atoms: _429  and  _430
REMARK  183  A    between atoms: _433  and  _435
REMARK  184  A    between atoms: _435  and  _436
REMARK  185  A    between atoms: _435  and  _438
REMARK  186  A    between atoms: _438  and  _439
REMARK  187  A    between atoms: _439  and  _440
REMARK  188  A    between atoms: _440  and  _441
REMARK                            x       y       z     vdW  Elec       q    Type
REMARK                         _______ _______ _______ _____ _____    ______ ____
ROOT
ATOM      1  CA  MET A   1     -15.305 -31.119 -14.757  0.00  0.00    +0.134 C 
ENDROOT
BRANCH   1   2
ATOM      2  N   MET A   1     -16.627 -30.772 -14.314  0.00  0.00    -0.239 NA
ATOM      3  H   MET A   1     -17.069 -29.886 -14.632  0.00  0.00    +0.142 HD
ENDBRANCH   1   2
BRANCH   1   4
ATOM      4  C   MET A   1     -14.288 -31.195 -13.626  0.00  0.00    +0.224 C 
ATOM      5  O   MET A   1     -13.324 -31.887 -13.814  0.00  0.00    -0.287 OA
ENDBRANCH   1   4
BRANCH   1   6
ATOM      6  CB  MET A   1     -14.771 -30.065 -15.746  0.00  0.00    +0.037 C 
BRANCH   6   7
ATOM      7  CG  MET A   1     -13.835 -30.680 -16.791  0.00  0.00    +0.059 C 
BRANCH   7   8
ATOM      8  SD  MET A   1     -13.137 -29.406 -17.940  0.00  0.00    -0.139 S 
ATOM      9  CE  MET A   1     -14.593 -28.485 -18.573  0.00  0.00    +0.069 C 
ENDBRANCH   7   8
ENDBRANCH   6   7
ENDBRANCH   1   6
TORSDOF 5
REMARK  Name = ../refined-set-2016/1px4/1px4_pocket.pdb
REMARK  188 active torsions:
REMARK  status: ('A' for Active; 'I' for Inactive)
REMARK    1  A    between atoms: _1  and  _3
REMARK    2  A    between atoms: _3  and  _4
REMARK    3  A    between atoms: _3  and  _6
REMARK    4  A    between atoms: _6  and  _7
REMARK    5  A    between atoms: _12  and  _13
REMARK    6  A    between atoms: _15  and  _17
REMARK    7  A    between atoms: _17  and  _18
REMARK    8  A    between atoms: _17  and  _20
REMARK    9  A    between atoms: _20  and  _21
REMARK   10  A    between atoms: _26  and  _28
REMARK   11  A    between atoms: _28  and  _29
REMARK   12  A    between atoms: _28  and  _31
REMARK   13  A    between atoms: _34  and  _36
REMARK   14  A    between atoms: _36  and  _37
REMARK   15  A    between atoms: _36  and  _39
REMARK   16  A    between atoms: _39  and  _40
REMARK   17  A    between atoms: _43  and  _45
REMARK   18  A    between atoms: _45  and  _46
REMARK   19  A    between atoms: _45  and  _48
REMARK   20  A    between atoms: _48  and  _49
REMARK   21  A    between atoms: _49  and  _50
REMARK   22  A    between atoms: _55  and  _57
REMARK   23  A    between atoms: _57  and  _58
REMARK   24  A    between atoms: _57  and  _60
REMARK   25  A    between atoms: _60  and  _61
REMARK   26  A    between atoms: _64  and  _66
REMARK   27  A    between atoms: _66  and  _67
REMARK   28  A    between atoms: _66  and  _69
REMARK   29  A    between atoms: _69  and  _70
REMARK   30  A    between atoms: _70  and  _71
REMARK   31  A    between atoms: _73  and  _75
REMARK   32  A    between atoms: _75  and  _76
REMARK   33  A    between atoms: _75  and  _78
REMARK   34  A    between atoms: _78  and  _79
REMARK   35  A    between atoms: _84  and  _86
REMARK   36  A    between atoms: _86  and  _87
REMARK   37  A    between atoms: _86  and  _89
REMARK   38  A    between atoms: _89  and  _90
REMARK   39  A    between atoms: _95  and  _97
REMARK   40  A    between atoms: _97  and  _98
REMARK   41  A    between atoms: _97  and  _100
REMARK   42  A    between atoms: _100  and  _101
REMARK   43  A    between atoms: _101  and  _102
REMARK   44  A    between atoms: _102  and  _103
REMARK   45  A    between atoms: _112  and  _114
REMARK   46  A    between atoms: _114  and  _115
REMARK   47  A    between atoms: _114  and  _117
REMARK   48  A    between atoms: _117  and  _118
REMARK   49  A    between atoms: _120  and  _122
REMARK   50  A    between atoms: _122  and  _123
REMARK   51  A    between atoms: _122  and  _125
REMARK   52  A    between atoms: _125  and  _126
REMARK   53  A    between atoms: _131  and  _133
REMARK   54  A    between atoms: _133  and  _134
REMARK   55  A    between atoms: _133  and  _136
REMARK   56  A    between atoms: _136  and  _137
REMARK   57  A    between atoms: _137  and  _138
REMARK   58  A    between atoms: _141  and  _143
REMARK   59  A    between atoms: _143  and  _144
REMARK   60  A    between atoms: _143  and  _146
REMARK   61  A    between atoms: _146  and  _147
REMARK   62  A    between atoms: _152  and  _154
REMARK   63  A    between atoms: _154  and  _155
REMARK   64  A    between atoms: _154  and  _157
REMARK   65  A    between atoms: _157  and  _158
REMARK   66  A    between atoms: _158  and  _159
REMARK   67  A    between atoms: _161  and  _163
REMARK   68  A    between atoms: _163  and  _164
REMARK   69  A    between atoms: _163  and  _166
REMARK   70  A    between atoms: _166  and  _167
REMARK   71  A    between atoms: _172  and  _174
REMARK   72  A    between atoms: _174  and  _175
REMARK   73  A    between atoms: _174  and  _177
REMARK   74  A    between atoms: _177  and  _178
REMARK   75  A    between atoms: _178  and  _179
REMARK   76  A    between atoms: _179  and  _180
REMARK   77  A    between atoms: _180  and  MG_450
REMARK   78  A    between atoms: _182  and  _184
REMARK   79  A    between atoms: _184  and  _185
REMARK   80  A    between atoms: _184  and  _187
REMARK   81  A    between atoms: _187  and  _188
REMARK   82  A    between atoms: _188  and  _189
REMARK   83  A    between atoms: _192  and  _194
REMARK   84  A    between atoms: _194  and  _195
REMARK   85  A    between atoms: _194  and  _197
REMARK   86  A    between atoms: _197  and  _198
REMARK   87  A    between atoms: _198  and  _199
REMARK   88  A    between atoms: _201  and  _203
REMARK   89  A    between atoms: _203  and  _204
REMARK   90  A    between atoms: _203  and  _206
REMARK   91  A    between atoms: _206  and  _207
REMARK   92  A    between atoms: _212  and  _213
REMARK   93  A    between atoms: _215  and  _217
REMARK   94  A    between atoms: _217  and  _218
REMARK   95  A    between atoms: _217  and  _220
REMARK   96  A    between atoms: _220  and  _221
REMARK   97  A    between atoms: _221  and  _222
REMARK   98  A    between atoms: _222  and  _223
REMARK   99  A    between atoms: _223  and  _224
REMARK  100  A    between atoms: _228  and  _230
REMARK  101  A    between atoms: _230  and  _231
REMARK  102  A    between atoms: _230  and  _233
REMARK  103  A    between atoms: _235  and  _237
REMARK  104  A    between atoms: _237  and  _238
REMARK  105  A    between atoms: _237  and  _240
REMARK  106  A    between atoms: _240  and  _241
REMARK  107  A    between atoms: _241  and  _242
REMARK  108  A    between atoms: _245  and  _247
REMARK  109  A    between atoms: _247  and  _248
REMARK  110  A    between atoms: _247  and  _250
REMARK  111  A    between atoms: _250  and  _251
REMARK  112  A    between atoms: _256  and  _258
REMARK  113  A    between atoms: _258  and  _259
REMARK  114  A    between atoms: _262  and  _264
REMARK  115  A    between atoms: _264  and  _265
REMARK  116  A    between atoms: _264  and  _267
REMARK  117  A    between atoms: _267  and  _268
REMARK  118  A    between atoms: _268  and  _269
REMARK  119  A    between atoms: _271  and  _273
REMARK  120  A    between atoms: _273  and  _274
REMARK  121  A    between atoms: _273  and  _276
REMARK  122  A    between atoms: _276  and  _277
REMARK  123  A    between atoms: _287  and  _289
REMARK  124  A    between atoms: _289  and  _290
REMARK  125  A    between atoms: _289  and  _292
REMARK  126  A    between atoms: _292  and  _293
REMARK  127  A    between atoms: _296  and  _298
REMARK  128  A    between atoms: _298  and  _299
REMARK  129  A    between atoms: _298  and  _301
REMARK  130  A    between atoms: _301  and  _302
REMARK  131  A    between atoms: _302  and  _303
REMARK  132  A    between atoms: _308  and  _310
REMARK  133  A    between atoms: _310  and  _311
REMARK  134  A    between atoms: _310  and  _313
REMARK  135  A    between atoms: _313  and  _314
REMARK  136  A    between atoms: _317  and  _319
REMARK  137  A    between atoms: _319  and  _320
REMARK  138  A    between atoms: _319  and  _322
REMARK  139  A    between atoms: _322  and  _323
REMARK  140  A    between atoms: _323  and  _324
REMARK  141  A    between atoms: _329  and  _331
REMARK  142  A    between atoms: _331  and  _332
REMARK  143  A    between atoms: _331  and  _334
REMARK  144  A    between atoms: _334  and  _335
REMARK  145  A    between atoms: _341  and  _343
REMARK  146  A    between atoms: _343  and  _344
REMARK  147  A    between atoms: _343  and  _346
REMARK  148  A    between atoms: _348  and  _350
REMARK  149  A    between atoms: _350  and  _351
REMARK  150  A    between atoms: _350  and  _353
REMARK  151  A    between atoms: _353  and  _354
REMARK  152  A    between atoms: _354  and  _355
REMARK  153  A    between atoms: _357  and  _359
REMARK  154  A    between atoms: _359  and  _360
REMARK  155  A    between atoms: _359  and  _362
REMARK  156  A    between atoms: _362  and  _363
REMARK  157  A    between atoms: _368  and  _370
REMARK  158  A    between atoms: _370  and  _371
REMARK  159  A    between atoms: _374  and  _376
REMARK  160  A    between atoms: _376  and  _377
REMARK  161  A    between atoms: _376  and  _379
REMARK  162  A    between atoms: _382  and  _384
REMARK  163  A    between atoms: _384  and  _385
REMARK  164  A    between atoms: _384  and  _387
REMARK  165  A    between atoms: _387  and  _388
REMARK  166  A    between atoms: _391  and  _393
REMARK  167  A    between atoms: _393  and  _394
REMARK  168  A    between atoms: _393  and  _396
REMARK  169  A    between atoms: _396  and  _397
REMARK  170  A    between atoms: _399  and  _401
REMARK  171  A    between atoms: _401  and  _402
REMARK  172  A    between atoms: _401  and  _404
REMARK  173  A    between atoms: _404  and  _405
REMARK  174  A    between atoms: _415  and  _417
REMARK  175  A    between atoms: _417  and  _418
REMARK  176  A    between atoms: _417  and  _420
REMARK  177  A    between atoms: _420  and  _421
REMARK  178  A    between atoms: _423  and  _425
REMARK  179  A    between atoms: _425  and  _426
REMARK  180  A    between atoms: _425  and  _428
REMARK  181  A    between atoms: _428  and  _429
REMARK  182  A    between atoms: _429  and  _430
REMARK  183  A    between atoms: _433  and  _435
REMARK  184  A    between atoms: _435  and  _436
REMARK  185  A    between atoms: _435  and  _438
REMARK  186  A    between atoms: _438  and  _439
REMARK  187  A    between atoms: _439  and  _440
REMARK  188  A    between atoms: _440  and  _441
REMARK                            x       y       z     vdW  Elec       q    Type
REMARK                         _______ _______ _______ _____ _____    ______ ____
ROOT
ATOM      1  C   ASN A   1      -7.406 -29.815 -19.005  0.00  0.00    +0.000 C 
ATOM      2  O   ASN A   1      -7.550 -30.954 -18.597  0.00  0.00    +0.000 OA
ATOM      3  N   UNK A   2      -8.424 -28.923 -19.165  0.00  0.00    +0.000 N 
ATOM      4  H   UNK A   2      -8.175 -27.937 -19.384  0.00  0.00    +0.000 HD
ENDROOT
BRANCH   1   5
ATOM      5  CA  ASN A   1      -5.983 -29.322 -19.297  0.00  0.00    +0.000 C 
BRANCH   5   6
ATOM      6  N   ASN A   1      -5.011 -29.922 -18.397  0.00  0.00    +0.000 NA
ATOM      7  H   ASN A   1      -5.173 -30.859 -17.975  0.00  0.00    +0.000 HD
ENDBRANCH   5   6
BRANCH   5   8
ATOM      8  CB  ASN A   1      -5.571 -29.744 -20.734  0.00  0.00    +0.000 C 
BRANCH   8   9
ATOM      9  CG  ASN A   1      -6.382 -29.105 -21.860  0.00  0.00    +0.000 C 
ATOM     10  OD1 ASN A   1      -6.365 -27.865 -22.019  0.00  0.00    +0.000 OA
ATOM     11  ND2 ASN A   1      -7.193 -29.934 -22.545  0.00  0.00    +0.000 N 
ATOM     12 HD21 ASN A   1      -7.160 -30.958 -22.367  0.00  0.00    +0.000 HD
ATOM     13 HD22 ASN A   1      -7.852 -29.550 -23.252  0.00  0.00    +0.000 HD
ENDBRANCH   8   9
ENDBRANCH   5   8
ENDBRANCH   1   5
BRANCH   3  14
ATOM     14  C   UNK A   2      -9.817 -29.251 -19.052  0.00  0.00    +0.000 C 
BRANCH  14  15
ATOM     15  C   UNK A   2     -10.064 -30.290 -17.986  0.00  0.00    +0.000 C 
ATOM     16  O   UNK A   2     -10.536 -31.439 -18.178  0.00  0.00    +0.000 OA
ENDBRANCH  14  15
BRANCH  14  17
ATOM     17  C   UNK A   2     -10.284 -29.785 -20.426  0.00  0.00    +0.000 C 
BRANCH  17  18
ATOM     18  C   UNK A   2     -10.114 -28.729 -21.540  0.00  0.00    +0.000 C 
BRANCH  18  19
ATOM     19  C   UNK A   2     -10.514 -29.171 -22.947  0.00  0.00    +0.000 C 
ATOM     20  O   UNK A   2     -11.258 -28.319 -23.607  0.00  0.00    +0.000 OA
BRANCH  19  21
ATOM     21  O   UNK A   2     -10.152 -30.181 -23.483  0.00  0.00    +0.000 OA
BRANCH  21  22
ATOM     22 MG   UNK A   2     -10.651 -32.217 -23.779  0.00  0.00    +0.000 Mg
ATOM     23  O   UNK A   2     -11.493 -31.822 -25.613  0.00  0.00    +0.000 OA
ENDBRANCH  21  22
ENDBRANCH  19  21
ENDBRANCH  18  19
ENDBRANCH  17  18
ENDBRANCH  14  17
ENDBRANCH   3  14
TORSDOF 11
REMARK  Name = ../refined-set-2016/1px4/1px4_pocket.pdb
REMARK  188 active torsions:
REMARK  status: ('A' for Active; 'I' for Inactive)
REMARK    1  A    between atoms: _1  and  _3
REMARK    2  A    between atoms: _3  and  _4
REMARK    3  A    between atoms: _3  and  _6
REMARK    4  A    between atoms: _6  and  _7
REMARK    5  A    between atoms: _12  and  _13
REMARK    6  A    between atoms: _15  and  _17
REMARK    7  A    between atoms: _17  and  _18
REMARK    8  A    between atoms: _17  and  _20
REMARK    9  A    between atoms: _20  and  _21
REMARK   10  A    between atoms: _26  and  _28
REMARK   11  A    between atoms: _28  and  _29
REMARK   12  A    between atoms: _28  and  _31
REMARK   13  A    between atoms: _34  and  _36
REMARK   14  A    between atoms: _36  and  _37
REMARK   15  A    between atoms: _36  and  _39
REMARK   16  A    between atoms: _39  and  _40
REMARK   17  A    between atoms: _43  and  _45
REMARK   18  A    between atoms: _45  and  _46
REMARK   19  A    between atoms: _45  and  _48
REMARK   20  A    between atoms: _48  and  _49
REMARK   21  A    between atoms: _49  and  _50
REMARK   22  A    between atoms: _55  and  _57
REMARK   23  A    between atoms: _57  and  _58
REMARK   24  A    between atoms: _57  and  _60
REMARK   25  A    between atoms: _60  and  _61
REMARK   26  A    between atoms: _64  and  _66
REMARK   27  A    between atoms: _66  and  _67
REMARK   28  A    between atoms: _66  and  _69
REMARK   29  A    between atoms: _69  and  _70
REMARK   30  A    between atoms: _70  and  _71
REMARK   31  A    between atoms: _73  and  _75
REMARK   32  A    between atoms: _75  and  _76
REMARK   33  A    between atoms: _75  and  _78
REMARK   34  A    between atoms: _78  and  _79
REMARK   35  A    between atoms: _84  and  _86
REMARK   36  A    between atoms: _86  and  _87
REMARK   37  A    between atoms: _86  and  _89
REMARK   38  A    between atoms: _89  and  _90
REMARK   39  A    between atoms: _95  and  _97
REMARK   40  A    between atoms: _97  and  _98
REMARK   41  A    between atoms: _97  and  _100
REMARK   42  A    between atoms: _100  and  _101
REMARK   43  A    between atoms: _101  and  _102
REMARK   44  A    between atoms: _102  and  _103
REMARK   45  A    between atoms: _112  and  _114
REMARK   46  A    between atoms: _114  and  _115
REMARK   47  A    between atoms: _114  and  _117
REMARK   48  A    between atoms: _117  and  _118
REMARK   49  A    between atoms: _120  and  _122
REMARK   50  A    between atoms: _122  and  _123
REMARK   51  A    between atoms: _122  and  _125
REMARK   52  A    between atoms: _125  and  _126
REMARK   53  A    between atoms: _131  and  _133
REMARK   54  A    between atoms: _133  and  _134
REMARK   55  A    between atoms: _133  and  _136
REMARK   56  A    between atoms: _136  and  _137
REMARK   57  A    between atoms: _137  and  _138
REMARK   58  A    between atoms: _141  and  _143
REMARK   59  A    between atoms: _143  and  _144
REMARK   60  A    between atoms: _143  and  _146
REMARK   61  A    between atoms: _146  and  _147
REMARK   62  A    between atoms: _152  and  _154
REMARK   63  A    between atoms: _154  and  _155
REMARK   64  A    between atoms: _154  and  _157
REMARK   65  A    between atoms: _157  and  _158
REMARK   66  A    between atoms: _158  and  _159
REMARK   67  A    between atoms: _161  and  _163
REMARK   68  A    between atoms: _163  and  _164
REMARK   69  A    between atoms: _163  and  _166
REMARK   70  A    between atoms: _166  and  _167
REMARK   71  A    between atoms: _172  and  _174
REMARK   72  A    between atoms: _174  and  _175
REMARK   73  A    between atoms: _174  and  _177
REMARK   74  A    between atoms: _177  and  _178
REMARK   75  A    between atoms: _178  and  _179
REMARK   76  A    between atoms: _179  and  _180
REMARK   77  A    between atoms: _180  and  MG_450
REMARK   78  A    between atoms: _182  and  _184
REMARK   79  A    between atoms: _184  and  _185
REMARK   80  A    between atoms: _184  and  _187
REMARK   81  A    between atoms: _187  and  _188
REMARK   82  A    between atoms: _188  and  _189
REMARK   83  A    between atoms: _192  and  _194
REMARK   84  A    between atoms: _194  and  _195
REMARK   85  A    between atoms: _194  and  _197
REMARK   86  A    between atoms: _197  and  _198
REMARK   87  A    between atoms: _198  and  _199
REMARK   88  A    between atoms: _201  and  _203
REMARK   89  A    between atoms: _203  and  _204
REMARK   90  A    between atoms: _203  and  _206
REMARK   91  A    between atoms: _206  and  _207
REMARK   92  A    between atoms: _212  and  _213
REMARK   93  A    between atoms: _215  and  _217
REMARK   94  A    between atoms: _217  and  _218
REMARK   95  A    between atoms: _217  and  _220
REMARK   96  A    between atoms: _220  and  _221
REMARK   97  A    between atoms: _221  and  _222
REMARK   98  A    between atoms: _222  and  _223
REMARK   99  A    between atoms: _223  and  _224
REMARK  100  A    between atoms: _228  and  _230
REMARK  101  A    between atoms: _230  and  _231
REMARK  102  A    between atoms: _230  and  _233
REMARK  103  A    between atoms: _235  and  _237
REMARK  104  A    between atoms: _237  and  _238
REMARK  105  A    between atoms: _237  and  _240
REMARK  106  A    between atoms: _240  and  _241
REMARK  107  A    between atoms: _241  and  _242
REMARK  108  A    between atoms: _245  and  _247
REMARK  109  A    between atoms: _247  and  _248
REMARK  110  A    between atoms: _247  and  _250
REMARK  111  A    between atoms: _250  and  _251
REMARK  112  A    between atoms: _256  and  _258
REMARK  113  A    between atoms: _258  and  _259
REMARK  114  A    between atoms: _262  and  _264
REMARK  115  A    between atoms: _264  and  _265
REMARK  116  A    between atoms: _264  and  _267
REMARK  117  A    between atoms: _267  and  _268
REMARK  118  A    between atoms: _268  and  _269
REMARK  119  A    between atoms: _271  and  _273
REMARK  120  A    between atoms: _273  and  _274
REMARK  121  A    between atoms: _273  and  _276
REMARK  122  A    between atoms: _276  and  _277
REMARK  123  A    between atoms: _287  and  _289
REMARK  124  A    between atoms: _289  and  _290
REMARK  125  A    between atoms: _289  and  _292
REMARK  126  A    between atoms: _292  and  _293
REMARK  127  A    between atoms: _296  and  _298
REMARK  128  A    between atoms: _298  and  _299
REMARK  129  A    between atoms: _298  and  _301
REMARK  130  A    between atoms: _301  and  _302
REMARK  131  A    between atoms: _302  and  _303
REMARK  132  A    between atoms: _308  and  _310
REMARK  133  A    between atoms: _310  and  _311
REMARK  134  A    between atoms: _310  and  _313
REMARK  135  A    between atoms: _313  and  _314
REMARK  136  A    between atoms: _317  and  _319
REMARK  137  A    between atoms: _319  and  _320
REMARK  138  A    between atoms: _319  and  _322
REMARK  139  A    between atoms: _322  and  _323
REMARK  140  A    between atoms: _323  and  _324
REMARK  141  A    between atoms: _329  and  _331
REMARK  142  A    between atoms: _331  and  _332
REMARK  143  A    between atoms: _331  and  _334
REMARK  144  A    between atoms: _334  and  _335
REMARK  145  A    between atoms: _341  and  _343
REMARK  146  A    between atoms: _343  and  _344
REMARK  147  A    between atoms: _343  and  _346
REMARK  148  A    between atoms: _348  and  _350
REMARK  149  A    between atoms: _350  and  _351
REMARK  150  A    between atoms: _350  and  _353
REMARK  151  A    between atoms: _353  and  _354
REMARK  152  A    between atoms: _354  and  _355
REMARK  153  A    between atoms: _357  and  _359
REMARK  154  A    between atoms: _359  and  _360
REMARK  155  A    between atoms: _359  and  _362
REMARK  156  A    between atoms: _362  and  _363
REMARK  157  A    between atoms: _368  and  _370
REMARK  158  A    between atoms: _370  and  _371
REMARK  159  A    between atoms: _374  and  _376
REMARK  160  A    between atoms: _376  and  _377
REMARK  161  A    between atoms: _376  and  _379
REMARK  162  A    between atoms: _382  and  _384
REMARK  163  A    between atoms: _384  and  _385
REMARK  164  A    between atoms: _384  and  _387
REMARK  165  A    between atoms: _387  and  _388
REMARK  166  A    between atoms: _391  and  _393
REMARK  167  A    between atoms: _393  and  _394
REMARK  168  A    between atoms: _393  and  _396
REMARK  169  A    between atoms: _396  and  _397
REMARK  170  A    between atoms: _399  and  _401
REMARK  171  A    between atoms: _401  and  _402
REMARK  172  A    between atoms: _401  and  _404
REMARK  173  A    between atoms: _404  and  _405
REMARK  174  A    between atoms: _415  and  _417
REMARK  175  A    between atoms: _417  and  _418
REMARK  176  A    between atoms: _417  and  _420
REMARK  177  A    between atoms: _420  and  _421
REMARK  178  A    between atoms: _423  and  _425
REMARK  179  A    between atoms: _425  and  _426
REMARK  180  A    between atoms: _425  and  _428
REMARK  181  A    between atoms: _428  and  _429
REMARK  182  A    between atoms: _429  and  _430
REMARK  183  A    between atoms: _433  and  _435
REMARK  184  A    between atoms: _435  and  _436
REMARK  185  A    between atoms: _435  and  _438
REMARK  186  A    between atoms: _438  and  _439
REMARK  187  A    between atoms: _439  and  _440
REMARK  188  A    between atoms: _440  and  _441
REMARK                            x       y       z     vdW  Elec       q    Type
REMARK                         _______ _______ _______ _____ _____    ______ ____
ROOT
ATOM      1  CA  GLU A   1      -6.980 -22.718 -18.148  0.00  0.00    +0.134 C 
ENDROOT
BRANCH   1   2
ATOM      2  N   GLU A   1      -5.742 -23.285 -17.608  0.00  0.00    -0.239 NA
ATOM      3  H   GLU A   1      -5.368 -24.175 -17.994  0.00  0.00    +0.142 HD
ENDBRANCH   1   2
BRANCH   1   4
ATOM      4  C   GLU A   1      -8.274 -23.096 -17.457  0.00  0.00    +0.224 C 
ATOM      5  O   GLU A   1      -9.255 -22.338 -17.511  0.00  0.00    -0.287 OA
ENDBRANCH   1   4
BRANCH   1   6
ATOM      6  CB  GLU A   1      -7.053 -22.945 -19.681  0.00  0.00    +0.037 C 
BRANCH   6   7
ATOM      7  CG  GLU A   1      -8.362 -22.483 -20.393  0.00  0.00    +0.116 C 
BRANCH   7   8
ATOM      8  CD  GLU A   1      -9.581 -23.417 -20.226  0.00  0.00    +0.365 C 
ATOM      9  OE2 GLU A   1      -9.476 -24.615 -19.850  0.00  0.00    -0.246 OA
ATOM     10  OE1 GLU A   1     -10.749 -22.842 -20.527  0.00  0.00    -0.246 OA
ENDBRANCH   7   8
ENDBRANCH   6   7
ENDBRANCH   1   6
TORSDOF 5
REMARK  Name = ../refined-set-2016/1px4/1px4_pocket.pdb
REMARK  188 active torsions:
REMARK  status: ('A' for Active; 'I' for Inactive)
REMARK    1  A    between atoms: _1  and  _3
REMARK    2  A    between atoms: _3  and  _4
REMARK    3  A    between atoms: _3  and  _6
REMARK    4  A    between atoms: _6  and  _7
REMARK    5  A    between atoms: _12  and  _13
REMARK    6  A    between atoms: _15  and  _17
REMARK    7  A    between atoms: _17  and  _18
REMARK    8  A    between atoms: _17  and  _20
REMARK    9  A    between atoms: _20  and  _21
REMARK   10  A    between atoms: _26  and  _28
REMARK   11  A    between atoms: _28  and  _29
REMARK   12  A    between atoms: _28  and  _31
REMARK   13  A    between atoms: _34  and  _36
REMARK   14  A    between atoms: _36  and  _37
REMARK   15  A    between atoms: _36  and  _39
REMARK   16  A    between atoms: _39  and  _40
REMARK   17  A    between atoms: _43  and  _45
REMARK   18  A    between atoms: _45  and  _46
REMARK   19  A    between atoms: _45  and  _48
REMARK   20  A    between atoms: _48  and  _49
REMARK   21  A    between atoms: _49  and  _50
REMARK   22  A    between atoms: _55  and  _57
REMARK   23  A    between atoms: _57  and  _58
REMARK   24  A    between atoms: _57  and  _60
REMARK   25  A    between atoms: _60  and  _61
REMARK   26  A    between atoms: _64  and  _66
REMARK   27  A    between atoms: _66  and  _67
REMARK   28  A    between atoms: _66  and  _69
REMARK   29  A    between atoms: _69  and  _70
REMARK   30  A    between atoms: _70  and  _71
REMARK   31  A    between atoms: _73  and  _75
REMARK   32  A    between atoms: _75  and  _76
REMARK   33  A    between atoms: _75  and  _78
REMARK   34  A    between atoms: _78  and  _79
REMARK   35  A    between atoms: _84  and  _86
REMARK   36  A    between atoms: _86  and  _87
REMARK   37  A    between atoms: _86  and  _89
REMARK   38  A    between atoms: _89  and  _90
REMARK   39  A    between atoms: _95  and  _97
REMARK   40  A    between atoms: _97  and  _98
REMARK   41  A    between atoms: _97  and  _100
REMARK   42  A    between atoms: _100  and  _101
REMARK   43  A    between atoms: _101  and  _102
REMARK   44  A    between atoms: _102  and  _103
REMARK   45  A    between atoms: _112  and  _114
REMARK   46  A    between atoms: _114  and  _115
REMARK   47  A    between atoms: _114  and  _117
REMARK   48  A    between atoms: _117  and  _118
REMARK   49  A    between atoms: _120  and  _122
REMARK   50  A    between atoms: _122  and  _123
REMARK   51  A    between atoms: _122  and  _125
REMARK   52  A    between atoms: _125  and  _126
REMARK   53  A    between atoms: _131  and  _133
REMARK   54  A    between atoms: _133  and  _134
REMARK   55  A    between atoms: _133  and  _136
REMARK   56  A    between atoms: _136  and  _137
REMARK   57  A    between atoms: _137  and  _138
REMARK   58  A    between atoms: _141  and  _143
REMARK   59  A    between atoms: _143  and  _144
REMARK   60  A    between atoms: _143  and  _146
REMARK   61  A    between atoms: _146  and  _147
REMARK   62  A    between atoms: _152  and  _154
REMARK   63  A    between atoms: _154  and  _155
REMARK   64  A    between atoms: _154  and  _157
REMARK   65  A    between atoms: _157  and  _158
REMARK   66  A    between atoms: _158  and  _159
REMARK   67  A    between atoms: _161  and  _163
REMARK   68  A    between atoms: _163  and  _164
REMARK   69  A    between atoms: _163  and  _166
REMARK   70  A    between atoms: _166  and  _167
REMARK   71  A    between atoms: _172  and  _174
REMARK   72  A    between atoms: _174  and  _175
REMARK   73  A    between atoms: _174  and  _177
REMARK   74  A    between atoms: _177  and  _178
REMARK   75  A    between atoms: _178  and  _179
REMARK   76  A    between atoms: _179  and  _180
REMARK   77  A    between atoms: _180  and  MG_450
REMARK   78  A    between atoms: _182  and  _184
REMARK   79  A    between atoms: _184  and  _185
REMARK   80  A    between atoms: _184  and  _187
REMARK   81  A    between atoms: _187  and  _188
REMARK   82  A    between atoms: _188  and  _189
REMARK   83  A    between atoms: _192  and  _194
REMARK   84  A    between atoms: _194  and  _195
REMARK   85  A    between atoms: _194  and  _197
REMARK   86  A    between atoms: _197  and  _198
REMARK   87  A    between atoms: _198  and  _199
REMARK   88  A    between atoms: _201  and  _203
REMARK   89  A    between atoms: _203  and  _204
REMARK   90  A    between atoms: _203  and  _206
REMARK   91  A    between atoms: _206  and  _207
REMARK   92  A    between atoms: _212  and  _213
REMARK   93  A    between atoms: _215  and  _217
REMARK   94  A    between atoms: _217  and  _218
REMARK   95  A    between atoms: _217  and  _220
REMARK   96  A    between atoms: _220  and  _221
REMARK   97  A    between atoms: _221  and  _222
REMARK   98  A    between atoms: _222  and  _223
REMARK   99  A    between atoms: _223  and  _224
REMARK  100  A    between atoms: _228  and  _230
REMARK  101  A    between atoms: _230  and  _231
REMARK  102  A    between atoms: _230  and  _233
REMARK  103  A    between atoms: _235  and  _237
REMARK  104  A    between atoms: _237  and  _238
REMARK  105  A    between atoms: _237  and  _240
REMARK  106  A    between atoms: _240  and  _241
REMARK  107  A    between atoms: _241  and  _242
REMARK  108  A    between atoms: _245  and  _247
REMARK  109  A    between atoms: _247  and  _248
REMARK  110  A    between atoms: _247  and  _250
REMARK  111  A    between atoms: _250  and  _251
REMARK  112  A    between atoms: _256  and  _258
REMARK  113  A    between atoms: _258  and  _259
REMARK  114  A    between atoms: _262  and  _264
REMARK  115  A    between atoms: _264  and  _265
REMARK  116  A    between atoms: _264  and  _267
REMARK  117  A    between atoms: _267  and  _268
REMARK  118  A    between atoms: _268  and  _269
REMARK  119  A    between atoms: _271  and  _273
REMARK  120  A    between atoms: _273  and  _274
REMARK  121  A    between atoms: _273  and  _276
REMARK  122  A    between atoms: _276  and  _277
REMARK  123  A    between atoms: _287  and  _289
REMARK  124  A    between atoms: _289  and  _290
REMARK  125  A    between atoms: _289  and  _292
REMARK  126  A    between atoms: _292  and  _293
REMARK  127  A    between atoms: _296  and  _298
REMARK  128  A    between atoms: _298  and  _299
REMARK  129  A    between atoms: _298  and  _301
REMARK  130  A    between atoms: _301  and  _302
REMARK  131  A    between atoms: _302  and  _303
REMARK  132  A    between atoms: _308  and  _310
REMARK  133  A    between atoms: _310  and  _311
REMARK  134  A    between atoms: _310  and  _313
REMARK  135  A    between atoms: _313  and  _314
REMARK  136  A    between atoms: _317  and  _319
REMARK  137  A    between atoms: _319  and  _320
REMARK  138  A    between atoms: _319  and  _322
REMARK  139  A    between atoms: _322  and  _323
REMARK  140  A    between atoms: _323  and  _324
REMARK  141  A    between atoms: _329  and  _331
REMARK  142  A    between atoms: _331  and  _332
REMARK  143  A    between atoms: _331  and  _334
REMARK  144  A    between atoms: _334  and  _335
REMARK  145  A    between atoms: _341  and  _343
REMARK  146  A    between atoms: _343  and  _344
REMARK  147  A    between atoms: _343  and  _346
REMARK  148  A    between atoms: _348  and  _350
REMARK  149  A    between atoms: _350  and  _351
REMARK  150  A    between atoms: _350  and  _353
REMARK  151  A    between atoms: _353  and  _354
REMARK  152  A    between atoms: _354  and  _355
REMARK  153  A    between atoms: _357  and  _359
REMARK  154  A    between atoms: _359  and  _360
REMARK  155  A    between atoms: _359  and  _362
REMARK  156  A    between atoms: _362  and  _363
REMARK  157  A    between atoms: _368  and  _370
REMARK  158  A    between atoms: _370  and  _371
REMARK  159  A    between atoms: _374  and  _376
REMARK  160  A    between atoms: _376  and  _377
REMARK  161  A    between atoms: _376  and  _379
REMARK  162  A    between atoms: _382  and  _384
REMARK  163  A    between atoms: _384  and  _385
REMARK  164  A    between atoms: _384  and  _387
REMARK  165  A    between atoms: _387  and  _388
REMARK  166  A    between atoms: _391  and  _393
REMARK  167  A    between atoms: _393  and  _394
REMARK  168  A    between atoms: _393  and  _396
REMARK  169  A    between atoms: _396  and  _397
REMARK  170  A    between atoms: _399  and  _401
REMARK  171  A    between atoms: _401  and  _402
REMARK  172  A    between atoms: _401  and  _404
REMARK  173  A    between atoms: _404  and  _405
REMARK  174  A    between atoms: _415  and  _417
REMARK  175  A    between atoms: _417  and  _418
REMARK  176  A    between atoms: _417  and  _420
REMARK  177  A    between atoms: _420  and  _421
REMARK  178  A    between atoms: _423  and  _425
REMARK  179  A    between atoms: _425  and  _426
REMARK  180  A    between atoms: _425  and  _428
REMARK  181  A    between atoms: _428  and  _429
REMARK  182  A    between atoms: _429  and  _430
REMARK  183  A    between atoms: _433  and  _435
REMARK  184  A    between atoms: _435  and  _436
REMARK  185  A    between atoms: _435  and  _438
REMARK  186  A    between atoms: _438  and  _439
REMARK  187  A    between atoms: _439  and  _440
REMARK  188  A    between atoms: _440  and  _441
REMARK                            x       y       z     vdW  Elec       q    Type
REMARK                         _______ _______ _______ _____ _____    ______ ____
ROOT
ATOM      1  CA  TYR A   2     -11.403 -20.021 -28.068  0.00  0.00    +0.141 C 
ENDROOT
BRANCH   1   4
ATOM      2  C   MET A   1     -10.602 -20.892 -25.956  0.00  0.00    +0.238 C 
ATOM      3  O   MET A   1     -11.732 -20.910 -25.444  0.00  0.00    -0.274 OA
ATOM      4  N   TYR A   2     -10.334 -20.438 -27.169  0.00  0.00    -0.298 N 
ATOM      5  H   TYR A   2      -9.345 -20.378 -27.486  0.00  0.00    +0.150 HD
BRANCH   2   6
ATOM      6  CA  MET A   1      -9.347 -21.364 -25.155  0.00  0.00    +0.146 C 
BRANCH   6   7
ATOM      7  N   MET A   1      -9.316 -20.547 -23.917  0.00  0.00    -0.238 NA
ATOM      8  H   MET A   1     -10.107 -20.618 -23.246  0.00  0.00    +0.142 HD
ENDBRANCH   6   7
BRANCH   6   9
ATOM      9  CB  MET A   1      -9.343 -22.896 -24.891  0.00  0.00    +0.038 C 
BRANCH   9  10
ATOM     10  CG  MET A   1     -10.468 -23.411 -24.016  0.00  0.00    +0.060 C 
BRANCH  10  11
ATOM     11  SD  MET A   1     -10.389 -25.233 -23.974  0.00  0.00    -0.139 S 
ATOM     12  CE  MET A   1      -8.861 -25.497 -22.998  0.00  0.00    +0.069 C 
ENDBRANCH  10  11
ENDBRANCH   9  10
ENDBRANCH   6   9
ENDBRANCH   2   6
ENDBRANCH   1   4
BRANCH   1  13
ATOM     13  C   TYR A   2     -12.168 -18.774 -27.636  0.00  0.00    +0.227 C 
ATOM     14  O   TYR A   2     -13.287 -18.556 -28.075  0.00  0.00    -0.286 OA
ENDBRANCH   1  13
BRANCH   1  15
ATOM     15  CB  TYR A   2     -12.331 -21.188 -28.432  0.00  0.00    +0.054 C 
BRANCH  15  16
ATOM     16  CG  TYR A   2     -11.450 -22.384 -28.716  0.00  0.00    -0.020 A 
ATOM     17  CD2 TYR A   2     -11.339 -23.419 -27.792  0.00  0.00    -0.001 A 
ATOM     18  CE2 TYR A   2     -10.541 -24.546 -28.026  0.00  0.00    +0.036 A 
ATOM     19  CZ  TYR A   2      -9.785 -24.623 -29.201  0.00  0.00    +0.134 A 
ATOM     20  CE1 TYR A   2      -9.845 -23.580 -30.128  0.00  0.00    +0.036 A 
ATOM     21  CD1 TYR A   2     -10.686 -22.485 -29.883  0.00  0.00    -0.001 A 
BRANCH  19  22
ATOM     22  OH  TYR A   2      -8.984 -25.734 -29.441  0.00  0.00    -0.506 OA
ATOM     23  HH  TYR A   2      -9.064 -26.367 -28.684  0.00  0.00    +0.292 HD
ENDBRANCH  19  22
ENDBRANCH  15  16
ENDBRANCH   1  15
TORSDOF 10
REMARK  Name = ../refined-set-2016/1px4/1px4_pocket.pdb
REMARK  188 active torsions:
REMARK  status: ('A' for Active; 'I' for Inactive)
REMARK    1  A    between atoms: _1  and  _3
REMARK    2  A    between atoms: _3  and  _4
REMARK    3  A    between atoms: _3  and  _6
REMARK    4  A    between atoms: _6  and  _7
REMARK    5  A    between atoms: _12  and  _13
REMARK    6  A    between atoms: _15  and  _17
REMARK    7  A    between atoms: _17  and  _18
REMARK    8  A    between atoms: _17  and  _20
REMARK    9  A    between atoms: _20  and  _21
REMARK   10  A    between atoms: _26  and  _28
REMARK   11  A    between atoms: _28  and  _29
REMARK   12  A    between atoms: _28  and  _31
REMARK   13  A    between atoms: _34  and  _36
REMARK   14  A    between atoms: _36  and  _37
REMARK   15  A    between atoms: _36  and  _39
REMARK   16  A    between atoms: _39  and  _40
REMARK   17  A    between atoms: _43  and  _45
REMARK   18  A    between atoms: _45  and  _46
REMARK   19  A    between atoms: _45  and  _48
REMARK   20  A    between atoms: _48  and  _49
REMARK   21  A    between atoms: _49  and  _50
REMARK   22  A    between atoms: _55  and  _57
REMARK   23  A    between atoms: _57  and  _58
REMARK   24  A    between atoms: _57  and  _60
REMARK   25  A    between atoms: _60  and  _61
REMARK   26  A    between atoms: _64  and  _66
REMARK   27  A    between atoms: _66  and  _67
REMARK   28  A    between atoms: _66  and  _69
REMARK   29  A    between atoms: _69  and  _70
REMARK   30  A    between atoms: _70  and  _71
REMARK   31  A    between atoms: _73  and  _75
REMARK   32  A    between atoms: _75  and  _76
REMARK   33  A    between atoms: _75  and  _78
REMARK   34  A    between atoms: _78  and  _79
REMARK   35  A    between atoms: _84  and  _86
REMARK   36  A    between atoms: _86  and  _87
REMARK   37  A    between atoms: _86  and  _89
REMARK   38  A    between atoms: _89  and  _90
REMARK   39  A    between atoms: _95  and  _97
REMARK   40  A    between atoms: _97  and  _98
REMARK   41  A    between atoms: _97  and  _100
REMARK   42  A    between atoms: _100  and  _101
REMARK   43  A    between atoms: _101  and  _102
REMARK   44  A    between atoms: _102  and  _103
REMARK   45  A    between atoms: _112  and  _114
REMARK   46  A    between atoms: _114  and  _115
REMARK   47  A    between atoms: _114  and  _117
REMARK   48  A    between atoms: _117  and  _118
REMARK   49  A    between atoms: _120  and  _122
REMARK   50  A    between atoms: _122  and  _123
REMARK   51  A    between atoms: _122  and  _125
REMARK   52  A    between atoms: _125  and  _126
REMARK   53  A    between atoms: _131  and  _133
REMARK   54  A    between atoms: _133  and  _134
REMARK   55  A    between atoms: _133  and  _136
REMARK   56  A    between atoms: _136  and  _137
REMARK   57  A    between atoms: _137  and  _138
REMARK   58  A    between atoms: _141  and  _143
REMARK   59  A    between atoms: _143  and  _144
REMARK   60  A    between atoms: _143  and  _146
REMARK   61  A    between atoms: _146  and  _147
REMARK   62  A    between atoms: _152  and  _154
REMARK   63  A    between atoms: _154  and  _155
REMARK   64  A    between atoms: _154  and  _157
REMARK   65  A    between atoms: _157  and  _158
REMARK   66  A    between atoms: _158  and  _159
REMARK   67  A    between atoms: _161  and  _163
REMARK   68  A    between atoms: _163  and  _164
REMARK   69  A    between atoms: _163  and  _166
REMARK   70  A    between atoms: _166  and  _167
REMARK   71  A    between atoms: _172  and  _174
REMARK   72  A    between atoms: _174  and  _175
REMARK   73  A    between atoms: _174  and  _177
REMARK   74  A    between atoms: _177  and  _178
REMARK   75  A    between atoms: _178  and  _179
REMARK   76  A    between atoms: _179  and  _180
REMARK   77  A    between atoms: _180  and  MG_450
REMARK   78  A    between atoms: _182  and  _184
REMARK   79  A    between atoms: _184  and  _185
REMARK   80  A    between atoms: _184  and  _187
REMARK   81  A    between atoms: _187  and  _188
REMARK   82  A    between atoms: _188  and  _189
REMARK   83  A    between atoms: _192  and  _194
REMARK   84  A    between atoms: _194  and  _195
REMARK   85  A    between atoms: _194  and  _197
REMARK   86  A    between atoms: _197  and  _198
REMARK   87  A    between atoms: _198  and  _199
REMARK   88  A    between atoms: _201  and  _203
REMARK   89  A    between atoms: _203  and  _204
REMARK   90  A    between atoms: _203  and  _206
REMARK   91  A    between atoms: _206  and  _207
REMARK   92  A    between atoms: _212  and  _213
REMARK   93  A    between atoms: _215  and  _217
REMARK   94  A    between atoms: _217  and  _218
REMARK   95  A    between atoms: _217  and  _220
REMARK   96  A    between atoms: _220  and  _221
REMARK   97  A    between atoms: _221  and  _222
REMARK   98  A    between atoms: _222  and  _223
REMARK   99  A    between atoms: _223  and  _224
REMARK  100  A    between atoms: _228  and  _230
REMARK  101  A    between atoms: _230  and  _231
REMARK  102  A    between atoms: _230  and  _233
REMARK  103  A    between atoms: _235  and  _237
REMARK  104  A    between atoms: _237  and  _238
REMARK  105  A    between atoms: _237  and  _240
REMARK  106  A    between atoms: _240  and  _241
REMARK  107  A    between atoms: _241  and  _242
REMARK  108  A    between atoms: _245  and  _247
REMARK  109  A    between atoms: _247  and  _248
REMARK  110  A    between atoms: _247  and  _250
REMARK  111  A    between atoms: _250  and  _251
REMARK  112  A    between atoms: _256  and  _258
REMARK  113  A    between atoms: _258  and  _259
REMARK  114  A    between atoms: _262  and  _264
REMARK  115  A    between atoms: _264  and  _265
REMARK  116  A    between atoms: _264  and  _267
REMARK  117  A    between atoms: _267  and  _268
REMARK  118  A    between atoms: _268  and  _269
REMARK  119  A    between atoms: _271  and  _273
REMARK  120  A    between atoms: _273  and  _274
REMARK  121  A    between atoms: _273  and  _276
REMARK  122  A    between atoms: _276  and  _277
REMARK  123  A    between atoms: _287  and  _289
REMARK  124  A    between atoms: _289  and  _290
REMARK  125  A    between atoms: _289  and  _292
REMARK  126  A    between atoms: _292  and  _293
REMARK  127  A    between atoms: _296  and  _298
REMARK  128  A    between atoms: _298  and  _299
REMARK  129  A    between atoms: _298  and  _301
REMARK  130  A    between atoms: _301  and  _302
REMARK  131  A    between atoms: _302  and  _303
REMARK  132  A    between atoms: _308  and  _310
REMARK  133  A    between atoms: _310  and  _311
REMARK  134  A    between atoms: _310  and  _313
REMARK  135  A    between atoms: _313  and  _314
REMARK  136  A    between atoms: _317  and  _319
REMARK  137  A    between atoms: _319  and  _320
REMARK  138  A    between atoms: _319  and  _322
REMARK  139  A    between atoms: _322  and  _323
REMARK  140  A    between atoms: _323  and  _324
REMARK  141  A    between atoms: _329  and  _331
REMARK  142  A    between atoms: _331  and  _332
REMARK  143  A    between atoms: _331  and  _334
REMARK  144  A    between atoms: _334  and  _335
REMARK  145  A    between atoms: _341  and  _343
REMARK  146  A    between atoms: _343  and  _344
REMARK  147  A    between atoms: _343  and  _346
REMARK  148  A    between atoms: _348  and  _350
REMARK  149  A    between atoms: _350  and  _351
REMARK  150  A    between atoms: _350  and  _353
REMARK  151  A    between atoms: _353  and  _354
REMARK  152  A    between atoms: _354  and  _355
REMARK  153  A    between atoms: _357  and  _359
REMARK  154  A    between atoms: _359  and  _360
REMARK  155  A    between atoms: _359  and  _362
REMARK  156  A    between atoms: _362  and  _363
REMARK  157  A    between atoms: _368  and  _370
REMARK  158  A    between atoms: _370  and  _371
REMARK  159  A    between atoms: _374  and  _376
REMARK  160  A    between atoms: _376  and  _377
REMARK  161  A    between atoms: _376  and  _379
REMARK  162  A    between atoms: _382  and  _384
REMARK  163  A    between atoms: _384  and  _385
REMARK  164  A    between atoms: _384  and  _387
REMARK  165  A    between atoms: _387  and  _388
REMARK  166  A    between atoms: _391  and  _393
REMARK  167  A    between atoms: _393  and  _394
REMARK  168  A    between atoms: _393  and  _396
REMARK  169  A    between atoms: _396  and  _397
REMARK  170  A    between atoms: _399  and  _401
REMARK  171  A    between atoms: _401  and  _402
REMARK  172  A    between atoms: _401  and  _404
REMARK  173  A    between atoms: _404  and  _405
REMARK  174  A    between atoms: _415  and  _417
REMARK  175  A    between atoms: _417  and  _418
REMARK  176  A    between atoms: _417  and  _420
REMARK  177  A    between atoms: _420  and  _421
REMARK  178  A    between atoms: _423  and  _425
REMARK  179  A    between atoms: _425  and  _426
REMARK  180  A    between atoms: _425  and  _428
REMARK  181  A    between atoms: _428  and  _429
REMARK  182  A    between atoms: _429  and  _430
REMARK  183  A    between atoms: _433  and  _435
REMARK  184  A    between atoms: _435  and  _436
REMARK  185  A    between atoms: _435  and  _438
REMARK  186  A    between atoms: _438  and  _439
REMARK  187  A    between atoms: _439  and  _440
REMARK  188  A    between atoms: _440  and  _441
REMARK                            x       y       z     vdW  Elec       q    Type
REMARK                         _______ _______ _______ _____ _____    ______ ____
ROOT
ATOM      1  CG  LYS A   1     -14.950 -18.871 -23.156  0.00  0.00    -0.000 C 
ENDROOT
BRANCH   1   2
ATOM      2  CB  LYS A   1     -15.205 -17.434 -23.581  0.00  0.00    +0.025 C 
BRANCH   2   3
ATOM      3  CA  LYS A   1     -15.297 -16.490 -22.371  0.00  0.00    +0.133 C 
BRANCH   3   4
ATOM      4  N   LYS A   1     -16.473 -16.723 -21.567  0.00  0.00    -0.239 NA
ATOM      5  H   LYS A   1     -17.417 -16.752 -22.002  0.00  0.00    +0.142 HD
ENDBRANCH   3   4
BRANCH   3   6
ATOM      6  C   LYS A   1     -15.469 -15.076 -22.899  0.00  0.00    +0.224 C 
ATOM      7  O   LYS A   1     -16.140 -14.852 -23.931  0.00  0.00    -0.287 OA
ENDBRANCH   3   6
ENDBRANCH   2   3
ENDBRANCH   1   2
BRANCH   1   8
ATOM      8  CD  LYS A   1     -14.390 -19.632 -24.353  0.00  0.00    -0.024 C 
BRANCH   8   9
ATOM      9  CE  LYS A   1     -14.670 -21.125 -24.390  0.00  0.00    -0.086 C 
BRANCH   9  10
ATOM     10  NZ  LYS A   1     -13.694 -21.780 -23.558  0.00  0.00    +0.380 N 
ATOM     11  HZ1 LYS A   1     -13.774 -21.422 -22.585  0.00  0.00    -0.089 HD
ATOM     12  HZ2 LYS A   1     -13.865 -22.806 -23.567  0.00  0.00    -0.089 HD
ATOM     13  HZ3 LYS A   1     -12.740 -21.583 -23.924  0.00  0.00    -0.089 HD
ENDBRANCH   9  10
ENDBRANCH   8   9
ENDBRANCH   1   8
TORSDOF 7
REMARK  Name = ../refined-set-2016/1px4/1px4_pocket.pdb
REMARK  188 active torsions:
REMARK  status: ('A' for Active; 'I' for Inactive)
REMARK    1  A    between atoms: _1  and  _3
REMARK    2  A    between atoms: _3  and  _4
REMARK    3  A    between atoms: _3  and  _6
REMARK    4  A    between atoms: _6  and  _7
REMARK    5  A    between atoms: _12  and  _13
REMARK    6  A    between atoms: _15  and  _17
REMARK    7  A    between atoms: _17  and  _18
REMARK    8  A    between atoms: _17  and  _20
REMARK    9  A    between atoms: _20  and  _21
REMARK   10  A    between atoms: _26  and  _28
REMARK   11  A    between atoms: _28  and  _29
REMARK   12  A    between atoms: _28  and  _31
REMARK   13  A    between atoms: _34  and  _36
REMARK   14  A    between atoms: _36  and  _37
REMARK   15  A    between atoms: _36  and  _39
REMARK   16  A    between atoms: _39  and  _40
REMARK   17  A    between atoms: _43  and  _45
REMARK   18  A    between atoms: _45  and  _46
REMARK   19  A    between atoms: _45  and  _48
REMARK   20  A    between atoms: _48  and  _49
REMARK   21  A    between atoms: _49  and  _50
REMARK   22  A    between atoms: _55  and  _57
REMARK   23  A    between atoms: _57  and  _58
REMARK   24  A    between atoms: _57  and  _60
REMARK   25  A    between atoms: _60  and  _61
REMARK   26  A    between atoms: _64  and  _66
REMARK   27  A    between atoms: _66  and  _67
REMARK   28  A    between atoms: _66  and  _69
REMARK   29  A    between atoms: _69  and  _70
REMARK   30  A    between atoms: _70  and  _71
REMARK   31  A    between atoms: _73  and  _75
REMARK   32  A    between atoms: _75  and  _76
REMARK   33  A    between atoms: _75  and  _78
REMARK   34  A    between atoms: _78  and  _79
REMARK   35  A    between atoms: _84  and  _86
REMARK   36  A    between atoms: _86  and  _87
REMARK   37  A    between atoms: _86  and  _89
REMARK   38  A    between atoms: _89  and  _90
REMARK   39  A    between atoms: _95  and  _97
REMARK   40  A    between atoms: _97  and  _98
REMARK   41  A    between atoms: _97  and  _100
REMARK   42  A    between atoms: _100  and  _101
REMARK   43  A    between atoms: _101  and  _102
REMARK   44  A    between atoms: _102  and  _103
REMARK   45  A    between atoms: _112  and  _114
REMARK   46  A    between atoms: _114  and  _115
REMARK   47  A    between atoms: _114  and  _117
REMARK   48  A    between atoms: _117  and  _118
REMARK   49  A    between atoms: _120  and  _122
REMARK   50  A    between atoms: _122  and  _123
REMARK   51  A    between atoms: _122  and  _125
REMARK   52  A    between atoms: _125  and  _126
REMARK   53  A    between atoms: _131  and  _133
REMARK   54  A    between atoms: _133  and  _134
REMARK   55  A    between atoms: _133  and  _136
REMARK   56  A    between atoms: _136  and  _137
REMARK   57  A    between atoms: _137  and  _138
REMARK   58  A    between atoms: _141  and  _143
REMARK   59  A    between atoms: _143  and  _144
REMARK   60  A    between atoms: _143  and  _146
REMARK   61  A    between atoms: _146  and  _147
REMARK   62  A    between atoms: _152  and  _154
REMARK   63  A    between atoms: _154  and  _155
REMARK   64  A    between atoms: _154  and  _157
REMARK   65  A    between atoms: _157  and  _158
REMARK   66  A    between atoms: _158  and  _159
REMARK   67  A    between atoms: _161  and  _163
REMARK   68  A    between atoms: _163  and  _164
REMARK   69  A    between atoms: _163  and  _166
REMARK   70  A    between atoms: _166  and  _167
REMARK   71  A    between atoms: _172  and  _174
REMARK   72  A    between atoms: _174  and  _175
REMARK   73  A    between atoms: _174  and  _177
REMARK   74  A    between atoms: _177  and  _178
REMARK   75  A    between atoms: _178  and  _179
REMARK   76  A    between atoms: _179  and  _180
REMARK   77  A    between atoms: _180  and  MG_450
REMARK   78  A    between atoms: _182  and  _184
REMARK   79  A    between atoms: _184  and  _185
REMARK   80  A    between atoms: _184  and  _187
REMARK   81  A    between atoms: _187  and  _188
REMARK   82  A    between atoms: _188  and  _189
REMARK   83  A    between atoms: _192  and  _194
REMARK   84  A    between atoms: _194  and  _195
REMARK   85  A    between atoms: _194  and  _197
REMARK   86  A    between atoms: _197  and  _198
REMARK   87  A    between atoms: _198  and  _199
REMARK   88  A    between atoms: _201  and  _203
REMARK   89  A    between atoms: _203  and  _204
REMARK   90  A    between atoms: _203  and  _206
REMARK   91  A    between atoms: _206  and  _207
REMARK   92  A    between atoms: _212  and  _213
REMARK   93  A    between atoms: _215  and  _217
REMARK   94  A    between atoms: _217  and  _218
REMARK   95  A    between atoms: _217  and  _220
REMARK   96  A    between atoms: _220  and  _221
REMARK   97  A    between atoms: _221  and  _222
REMARK   98  A    between atoms: _222  and  _223
REMARK   99  A    between atoms: _223  and  _224
REMARK  100  A    between atoms: _228  and  _230
REMARK  101  A    between atoms: _230  and  _231
REMARK  102  A    between atoms: _230  and  _233
REMARK  103  A    between atoms: _235  and  _237
REMARK  104  A    between atoms: _237  and  _238
REMARK  105  A    between atoms: _237  and  _240
REMARK  106  A    between atoms: _240  and  _241
REMARK  107  A    between atoms: _241  and  _242
REMARK  108  A    between atoms: _245  and  _247
REMARK  109  A    between atoms: _247  and  _248
REMARK  110  A    between atoms: _247  and  _250
REMARK  111  A    between atoms: _250  and  _251
REMARK  112  A    between atoms: _256  and  _258
REMARK  113  A    between atoms: _258  and  _259
REMARK  114  A    between atoms: _262  and  _264
REMARK  115  A    between atoms: _264  and  _265
REMARK  116  A    between atoms: _264  and  _267
REMARK  117  A    between atoms: _267  and  _268
REMARK  118  A    between atoms: _268  and  _269
REMARK  119  A    between atoms: _271  and  _273
REMARK  120  A    between atoms: _273  and  _274
REMARK  121  A    between atoms: _273  and  _276
REMARK  122  A    between atoms: _276  and  _277
REMARK  123  A    between atoms: _287  and  _289
REMARK  124  A    between atoms: _289  and  _290
REMARK  125  A    between atoms: _289  and  _292
REMARK  126  A    between atoms: _292  and  _293
REMARK  127  A    between atoms: _296  and  _298
REMARK  128  A    between atoms: _298  and  _299
REMARK  129  A    between atoms: _298  and  _301
REMARK  130  A    between atoms: _301  and  _302
REMARK  131  A    between atoms: _302  and  _303
REMARK  132  A    between atoms: _308  and  _310
REMARK  133  A    between atoms: _310  and  _311
REMARK  134  A    between atoms: _310  and  _313
REMARK  135  A    between atoms: _313  and  _314
REMARK  136  A    between atoms: _317  and  _319
REMARK  137  A    between atoms: _319  and  _320
REMARK  138  A    between atoms: _319  and  _322
REMARK  139  A    between atoms: _322  and  _323
REMARK  140  A    between atoms: _323  and  _324
REMARK  141  A    between atoms: _329  and  _331
REMARK  142  A    between atoms: _331  and  _332
REMARK  143  A    between atoms: _331  and  _334
REMARK  144  A    between atoms: _334  and  _335
REMARK  145  A    between atoms: _341  and  _343
REMARK  146  A    between atoms: _343  and  _344
REMARK  147  A    between atoms: _343  and  _346
REMARK  148  A    between atoms: _348  and  _350
REMARK  149  A    between atoms: _350  and  _351
REMARK  150  A    between atoms: _350  and  _353
REMARK  151  A    between atoms: _353  and  _354
REMARK  152  A    between atoms: _354  and  _355
REMARK  153  A    between atoms: _357  and  _359
REMARK  154  A    between atoms: _359  and  _360
REMARK  155  A    between atoms: _359  and  _362
REMARK  156  A    between atoms: _362  and  _363
REMARK  157  A    between atoms: _368  and  _370
REMARK  158  A    between atoms: _370  and  _371
REMARK  159  A    between atoms: _374  and  _376
REMARK  160  A    between atoms: _376  and  _377
REMARK  161  A    between atoms: _376  and  _379
REMARK  162  A    between atoms: _382  and  _384
REMARK  163  A    between atoms: _384  and  _385
REMARK  164  A    between atoms: _384  and  _387
REMARK  165  A    between atoms: _387  and  _388
REMARK  166  A    between atoms: _391  and  _393
REMARK  167  A    between atoms: _393  and  _394
REMARK  168  A    between atoms: _393  and  _396
REMARK  169  A    between atoms: _396  and  _397
REMARK  170  A    between atoms: _399  and  _401
REMARK  171  A    between atoms: _401  and  _402
REMARK  172  A    between atoms: _401  and  _404
REMARK  173  A    between atoms: _404  and  _405
REMARK  174  A    between atoms: _415  and  _417
REMARK  175  A    between atoms: _417  and  _418
REMARK  176  A    between atoms: _417  and  _420
REMARK  177  A    between atoms: _420  and  _421
REMARK  178  A    between atoms: _423  and  _425
REMARK  179  A    between atoms: _425  and  _426
REMARK  180  A    between atoms: _425  and  _428
REMARK  181  A    between atoms: _428  and  _429
REMARK  182  A    between atoms: _429  and  _430
REMARK  183  A    between atoms: _433  and  _435
REMARK  184  A    between atoms: _435  and  _436
REMARK  185  A    between atoms: _435  and  _438
REMARK  186  A    between atoms: _438  and  _439
REMARK  187  A    between atoms: _439  and  _440
REMARK  188  A    between atoms: _440  and  _441
REMARK                            x       y       z     vdW  Elec       q    Type
REMARK                         _______ _______ _______ _____ _____    ______ ____
ROOT
ATOM      1  C   CYS A   1      -4.331 -22.398 -25.942  0.00  0.00    +0.239 C 
ATOM      2  O   CYS A   1      -3.597 -23.286 -26.420  0.00  0.00    -0.274 OA
ATOM      3  N   GLU A   2      -5.495 -21.974 -26.470  0.00  0.00    -0.298 N 
ATOM      4  H   GLU A   2      -6.046 -21.236 -25.986  0.00  0.00    +0.150 HD
ENDROOT
BRANCH   1   5
ATOM      5  CA  CYS A   1      -3.859 -21.653 -24.709  0.00  0.00    +0.156 C 
BRANCH   5   6
ATOM      6  N   CYS A   1      -4.528 -20.334 -24.662  0.00  0.00    -0.237 NA
ATOM      7  H   CYS A   1      -5.320 -20.160 -24.010  0.00  0.00    +0.142 HD
ENDBRANCH   5   6
BRANCH   5   8
ATOM      8  CB  CYS A   1      -4.060 -22.482 -23.444  0.00  0.00    +0.095 C 
ATOM      9  SG  CYS A   1      -5.744 -23.017 -23.164  0.00  0.00    -0.080 S 
ENDBRANCH   5   8
ENDBRANCH   1   5
BRANCH   3  10
ATOM     10  CA  GLU A   2      -5.980 -22.539 -27.703  0.00  0.00    +0.137 C 
BRANCH  10  11
ATOM     11  C   GLU A   2      -6.839 -21.504 -28.424  0.00  0.00    +0.227 C 
ATOM     12  O   GLU A   2      -7.675 -20.881 -27.761  0.00  0.00    -0.286 OA
ENDBRANCH  10  11
BRANCH  10  13
ATOM     13  CB  GLU A   2      -6.898 -23.763 -27.465  0.00  0.00    +0.039 C 
BRANCH  13  14
ATOM     14  CG  GLU A   2      -6.196 -24.920 -26.676  0.00  0.00    +0.116 C 
BRANCH  14  15
ATOM     15  CD  GLU A   2      -7.061 -26.148 -26.399  0.00  0.00    +0.365 C 
ATOM     16  OE2 GLU A   2      -6.533 -26.894 -25.429  0.00  0.00    -0.246 OA
ATOM     17  OE1 GLU A   2      -8.042 -26.458 -27.095  0.00  0.00    -0.246 OA
ENDBRANCH  14  15
ENDBRANCH  13  14
ENDBRANCH  10  13
ENDBRANCH   3  10
TORSDOF 8
REMARK  Name = ../refined-set-2016/1px4/1px4_pocket.pdb
REMARK  188 active torsions:
REMARK  status: ('A' for Active; 'I' for Inactive)
REMARK    1  A    between atoms: _1  and  _3
REMARK    2  A    between atoms: _3  and  _4
REMARK    3  A    between atoms: _3  and  _6
REMARK    4  A    between atoms: _6  and  _7
REMARK    5  A    between atoms: _12  and  _13
REMARK    6  A    between atoms: _15  and  _17
REMARK    7  A    between atoms: _17  and  _18
REMARK    8  A    between atoms: _17  and  _20
REMARK    9  A    between atoms: _20  and  _21
REMARK   10  A    between atoms: _26  and  _28
REMARK   11  A    between atoms: _28  and  _29
REMARK   12  A    between atoms: _28  and  _31
REMARK   13  A    between atoms: _34  and  _36
REMARK   14  A    between atoms: _36  and  _37
REMARK   15  A    between atoms: _36  and  _39
REMARK   16  A    between atoms: _39  and  _40
REMARK   17  A    between atoms: _43  and  _45
REMARK   18  A    between atoms: _45  and  _46
REMARK   19  A    between atoms: _45  and  _48
REMARK   20  A    between atoms: _48  and  _49
REMARK   21  A    between atoms: _49  and  _50
REMARK   22  A    between atoms: _55  and  _57
REMARK   23  A    between atoms: _57  and  _58
REMARK   24  A    between atoms: _57  and  _60
REMARK   25  A    between atoms: _60  and  _61
REMARK   26  A    between atoms: _64  and  _66
REMARK   27  A    between atoms: _66  and  _67
REMARK   28  A    between atoms: _66  and  _69
REMARK   29  A    between atoms: _69  and  _70
REMARK   30  A    between atoms: _70  and  _71
REMARK   31  A    between atoms: _73  and  _75
REMARK   32  A    between atoms: _75  and  _76
REMARK   33  A    between atoms: _75  and  _78
REMARK   34  A    between atoms: _78  and  _79
REMARK   35  A    between atoms: _84  and  _86
REMARK   36  A    between atoms: _86  and  _87
REMARK   37  A    between atoms: _86  and  _89
REMARK   38  A    between atoms: _89  and  _90
REMARK   39  A    between atoms: _95  and  _97
REMARK   40  A    between atoms: _97  and  _98
REMARK   41  A    between atoms: _97  and  _100
REMARK   42  A    between atoms: _100  and  _101
REMARK   43  A    between atoms: _101  and  _102
REMARK   44  A    between atoms: _102  and  _103
REMARK   45  A    between atoms: _112  and  _114
REMARK   46  A    between atoms: _114  and  _115
REMARK   47  A    between atoms: _114  and  _117
REMARK   48  A    between atoms: _117  and  _118
REMARK   49  A    between atoms: _120  and  _122
REMARK   50  A    between atoms: _122  and  _123
REMARK   51  A    between atoms: _122  and  _125
REMARK   52  A    between atoms: _125  and  _126
REMARK   53  A    between atoms: _131  and  _133
REMARK   54  A    between atoms: _133  and  _134
REMARK   55  A    between atoms: _133  and  _136
REMARK   56  A    between atoms: _136  and  _137
REMARK   57  A    between atoms: _137  and  _138
REMARK   58  A    between atoms: _141  and  _143
REMARK   59  A    between atoms: _143  and  _144
REMARK   60  A    between atoms: _143  and  _146
REMARK   61  A    between atoms: _146  and  _147
REMARK   62  A    between atoms: _152  and  _154
REMARK   63  A    between atoms: _154  and  _155
REMARK   64  A    between atoms: _154  and  _157
REMARK   65  A    between atoms: _157  and  _158
REMARK   66  A    between atoms: _158  and  _159
REMARK   67  A    between atoms: _161  and  _163
REMARK   68  A    between atoms: _163  and  _164
REMARK   69  A    between atoms: _163  and  _166
REMARK   70  A    between atoms: _166  and  _167
REMARK   71  A    between atoms: _172  and  _174
REMARK   72  A    between atoms: _174  and  _175
REMARK   73  A    between atoms: _174  and  _177
REMARK   74  A    between atoms: _177  and  _178
REMARK   75  A    between atoms: _178  and  _179
REMARK   76  A    between atoms: _179  and  _180
REMARK   77  A    between atoms: _180  and  MG_450
REMARK   78  A    between atoms: _182  and  _184
REMARK   79  A    between atoms: _184  and  _185
REMARK   80  A    between atoms: _184  and  _187
REMARK   81  A    between atoms: _187  and  _188
REMARK   82  A    between atoms: _188  and  _189
REMARK   83  A    between atoms: _192  and  _194
REMARK   84  A    between atoms: _194  and  _195
REMARK   85  A    between atoms: _194  and  _197
REMARK   86  A    between atoms: _197  and  _198
REMARK   87  A    between atoms: _198  and  _199
REMARK   88  A    between atoms: _201  and  _203
REMARK   89  A    between atoms: _203  and  _204
REMARK   90  A    between atoms: _203  and  _206
REMARK   91  A    between atoms: _206  and  _207
REMARK   92  A    between atoms: _212  and  _213
REMARK   93  A    between atoms: _215  and  _217
REMARK   94  A    between atoms: _217  and  _218
REMARK   95  A    between atoms: _217  and  _220
REMARK   96  A    between atoms: _220  and  _221
REMARK   97  A    between atoms: _221  and  _222
REMARK   98  A    between atoms: _222  and  _223
REMARK   99  A    between atoms: _223  and  _224
REMARK  100  A    between atoms: _228  and  _230
REMARK  101  A    between atoms: _230  and  _231
REMARK  102  A    between atoms: _230  and  _233
REMARK  103  A    between atoms: _235  and  _237
REMARK  104  A    between atoms: _237  and  _238
REMARK  105  A    between atoms: _237  and  _240
REMARK  106  A    between atoms: _240  and  _241
REMARK  107  A    between atoms: _241  and  _242
REMARK  108  A    between atoms: _245  and  _247
REMARK  109  A    between atoms: _247  and  _248
REMARK  110  A    between atoms: _247  and  _250
REMARK  111  A    between atoms: _250  and  _251
REMARK  112  A    between atoms: _256  and  _258
REMARK  113  A    between atoms: _258  and  _259
REMARK  114  A    between atoms: _262  and  _264
REMARK  115  A    between atoms: _264  and  _265
REMARK  116  A    between atoms: _264  and  _267
REMARK  117  A    between atoms: _267  and  _268
REMARK  118  A    between atoms: _268  and  _269
REMARK  119  A    between atoms: _271  and  _273
REMARK  120  A    between atoms: _273  and  _274
REMARK  121  A    between atoms: _273  and  _276
REMARK  122  A    between atoms: _276  and  _277
REMARK  123  A    between atoms: _287  and  _289
REMARK  124  A    between atoms: _289  and  _290
REMARK  125  A    between atoms: _289  and  _292
REMARK  126  A    between atoms: _292  and  _293
REMARK  127  A    between atoms: _296  and  _298
REMARK  128  A    between atoms: _298  and  _299
REMARK  129  A    between atoms: _298  and  _301
REMARK  130  A    between atoms: _301  and  _302
REMARK  131  A    between atoms: _302  and  _303
REMARK  132  A    between atoms: _308  and  _310
REMARK  133  A    between atoms: _310  and  _311
REMARK  134  A    between atoms: _310  and  _313
REMARK  135  A    between atoms: _313  and  _314
REMARK  136  A    between atoms: _317  and  _319
REMARK  137  A    between atoms: _319  and  _320
REMARK  138  A    between atoms: _319  and  _322
REMARK  139  A    between atoms: _322  and  _323
REMARK  140  A    between atoms: _323  and  _324
REMARK  141  A    between atoms: _329  and  _331
REMARK  142  A    between atoms: _331  and  _332
REMARK  143  A    between atoms: _331  and  _334
REMARK  144  A    between atoms: _334  and  _335
REMARK  145  A    between atoms: _341  and  _343
REMARK  146  A    between atoms: _343  and  _344
REMARK  147  A    between atoms: _343  and  _346
REMARK  148  A    between atoms: _348  and  _350
REMARK  149  A    between atoms: _350  and  _351
REMARK  150  A    between atoms: _350  and  _353
REMARK  151  A    between atoms: _353  and  _354
REMARK  152  A    between atoms: _354  and  _355
REMARK  153  A    between atoms: _357  and  _359
REMARK  154  A    between atoms: _359  and  _360
REMARK  155  A    between atoms: _359  and  _362
REMARK  156  A    between atoms: _362  and  _363
REMARK  157  A    between atoms: _368  and  _370
REMARK  158  A    between atoms: _370  and  _371
REMARK  159  A    between atoms: _374  and  _376
REMARK  160  A    between atoms: _376  and  _377
REMARK  161  A    between atoms: _376  and  _379
REMARK  162  A    between atoms: _382  and  _384
REMARK  163  A    between atoms: _384  and  _385
REMARK  164  A    between atoms: _384  and  _387
REMARK  165  A    between atoms: _387  and  _388
REMARK  166  A    between atoms: _391  and  _393
REMARK  167  A    between atoms: _393  and  _394
REMARK  168  A    between atoms: _393  and  _396
REMARK  169  A    between atoms: _396  and  _397
REMARK  170  A    between atoms: _399  and  _401
REMARK  171  A    between atoms: _401  and  _402
REMARK  172  A    between atoms: _401  and  _404
REMARK  173  A    between atoms: _404  and  _405
REMARK  174  A    between atoms: _415  and  _417
REMARK  175  A    between atoms: _417  and  _418
REMARK  176  A    between atoms: _417  and  _420
REMARK  177  A    between atoms: _420  and  _421
REMARK  178  A    between atoms: _423  and  _425
REMARK  179  A    between atoms: _425  and  _426
REMARK  180  A    between atoms: _425  and  _428
REMARK  181  A    between atoms: _428  and  _429
REMARK  182  A    between atoms: _429  and  _430
REMARK  183  A    between atoms: _433  and  _435
REMARK  184  A    between atoms: _435  and  _436
REMARK  185  A    between atoms: _435  and  _438
REMARK  186  A    between atoms: _438  and  _439
REMARK  187  A    between atoms: _439  and  _440
REMARK  188  A    between atoms: _440  and  _441
REMARK                            x       y       z     vdW  Elec       q    Type
REMARK                         _______ _______ _______ _____ _____    ______ ____
ROOT
ATOM      1  C   HIS A   1      -9.661 -24.553 -35.830  0.00  0.00    +0.239 C 
ATOM      2  N   ALA A   2      -8.542 -25.151 -36.206  0.00  0.00    -0.297 N 
ATOM      3  H   ALA A   2      -7.858 -25.459 -35.486  0.00  0.00    +0.150 HD
ATOM      4  O   HIS A   1     -10.570 -24.290 -36.625  0.00  0.00    -0.274 OA
ENDROOT
BRANCH   2   5
ATOM      5  CA  ALA A   2      -8.256 -25.384 -37.617  0.00  0.00    +0.149 C 
ATOM      6  CB  ALA A   2      -6.724 -25.291 -37.770  0.00  0.00    +0.031 C 
BRANCH   5   7
ATOM      7  C   ALA A   2      -8.823 -26.640 -38.192  0.00  0.00    +0.241 C 
ATOM      8  N   MET A   3     -10.029 -26.918 -37.882  0.00  0.00    -0.298 N 
ATOM      9  H   MET A   3     -10.568 -26.278 -37.265  0.00  0.00    +0.150 HD
ATOM     10  O   ALA A   2      -8.173 -27.361 -38.931  0.00  0.00    -0.273 OA
BRANCH   8  11
ATOM     11  CA  MET A   3     -10.656 -28.144 -38.398  0.00  0.00    +0.138 C 
BRANCH  11  12
ATOM     12  C   MET A   3     -11.264 -28.035 -39.809  0.00  0.00    +0.227 C 
ATOM     13  O   MET A   3     -12.260 -27.311 -40.064  0.00  0.00    -0.286 OA
ENDBRANCH  11  12
BRANCH  11  14
ATOM     14  CB  MET A   3     -11.853 -28.376 -37.487  0.00  0.00    +0.039 C 
BRANCH  14  15
ATOM     15  CG  MET A   3     -12.665 -29.631 -37.803  0.00  0.00    +0.060 C 
BRANCH  15  16
ATOM     16  SD  MET A   3     -13.970 -29.896 -36.548  0.00  0.00    -0.139 S 
ATOM     17  CE  MET A   3     -14.636 -31.499 -37.109  0.00  0.00    +0.069 C 
ENDBRANCH  15  16
ENDBRANCH  14  15
ENDBRANCH  11  14
ENDBRANCH   8  11
ENDBRANCH   5   7
ENDBRANCH   2   5
BRANCH   1  18
ATOM     18  CA  HIS A   1      -9.760 -24.157 -34.327  0.00  0.00    +0.151 C 
BRANCH  18  19
ATOM     19  N   HIS A   1      -9.586 -22.704 -34.162  0.00  0.00    -0.238 NA
ATOM     20  H   HIS A   1     -10.372 -22.129 -33.796  0.00  0.00    +0.142 HD
ENDBRANCH  18  19
BRANCH  18  21
ATOM     21  CB  HIS A   1     -11.100 -24.501 -33.632  0.00  0.00    +0.074 C 
BRANCH  21  22
ATOM     22  CG  HIS A   1     -11.222 -25.988 -33.396  0.00  0.00    +0.082 A 
ATOM     23  CD2 HIS A   1     -10.623 -26.801 -32.458  0.00  0.00    +0.115 A 
ATOM     24  NE2 HIS A   1     -11.095 -28.087 -32.694  0.00  0.00    -0.221 NA
ATOM     25  CE1 HIS A   1     -11.955 -28.029 -33.737  0.00  0.00    +0.199 A 
ATOM     26  ND1 HIS A   1     -12.062 -26.785 -34.194  0.00  0.00    -0.227 NA
ENDBRANCH  21  22
ENDBRANCH  18  21
ENDBRANCH   1  18
TORSDOF 11
REMARK  Name = ../refined-set-2016/1px4/1px4_pocket.pdb
REMARK  188 active torsions:
REMARK  status: ('A' for Active; 'I' for Inactive)
REMARK    1  A    between atoms: _1  and  _3
REMARK    2  A    between atoms: _3  and  _4
REMARK    3  A    between atoms: _3  and  _6
REMARK    4  A    between atoms: _6  and  _7
REMARK    5  A    between atoms: _12  and  _13
REMARK    6  A    between atoms: _15  and  _17
REMARK    7  A    between atoms: _17  and  _18
REMARK    8  A    between atoms: _17  and  _20
REMARK    9  A    between atoms: _20  and  _21
REMARK   10  A    between atoms: _26  and  _28
REMARK   11  A    between atoms: _28  and  _29
REMARK   12  A    between atoms: _28  and  _31
REMARK   13  A    between atoms: _34  and  _36
REMARK   14  A    between atoms: _36  and  _37
REMARK   15  A    between atoms: _36  and  _39
REMARK   16  A    between atoms: _39  and  _40
REMARK   17  A    between atoms: _43  and  _45
REMARK   18  A    between atoms: _45  and  _46
REMARK   19  A    between atoms: _45  and  _48
REMARK   20  A    between atoms: _48  and  _49
REMARK   21  A    between atoms: _49  and  _50
REMARK   22  A    between atoms: _55  and  _57
REMARK   23  A    between atoms: _57  and  _58
REMARK   24  A    between atoms: _57  and  _60
REMARK   25  A    between atoms: _60  and  _61
REMARK   26  A    between atoms: _64  and  _66
REMARK   27  A    between atoms: _66  and  _67
REMARK   28  A    between atoms: _66  and  _69
REMARK   29  A    between atoms: _69  and  _70
REMARK   30  A    between atoms: _70  and  _71
REMARK   31  A    between atoms: _73  and  _75
REMARK   32  A    between atoms: _75  and  _76
REMARK   33  A    between atoms: _75  and  _78
REMARK   34  A    between atoms: _78  and  _79
REMARK   35  A    between atoms: _84  and  _86
REMARK   36  A    between atoms: _86  and  _87
REMARK   37  A    between atoms: _86  and  _89
REMARK   38  A    between atoms: _89  and  _90
REMARK   39  A    between atoms: _95  and  _97
REMARK   40  A    between atoms: _97  and  _98
REMARK   41  A    between atoms: _97  and  _100
REMARK   42  A    between atoms: _100  and  _101
REMARK   43  A    between atoms: _101  and  _102
REMARK   44  A    between atoms: _102  and  _103
REMARK   45  A    between atoms: _112  and  _114
REMARK   46  A    between atoms: _114  and  _115
REMARK   47  A    between atoms: _114  and  _117
REMARK   48  A    between atoms: _117  and  _118
REMARK   49  A    between atoms: _120  and  _122
REMARK   50  A    between atoms: _122  and  _123
REMARK   51  A    between atoms: _122  and  _125
REMARK   52  A    between atoms: _125  and  _126
REMARK   53  A    between atoms: _131  and  _133
REMARK   54  A    between atoms: _133  and  _134
REMARK   55  A    between atoms: _133  and  _136
REMARK   56  A    between atoms: _136  and  _137
REMARK   57  A    between atoms: _137  and  _138
REMARK   58  A    between atoms: _141  and  _143
REMARK   59  A    between atoms: _143  and  _144
REMARK   60  A    between atoms: _143  and  _146
REMARK   61  A    between atoms: _146  and  _147
REMARK   62  A    between atoms: _152  and  _154
REMARK   63  A    between atoms: _154  and  _155
REMARK   64  A    between atoms: _154  and  _157
REMARK   65  A    between atoms: _157  and  _158
REMARK   66  A    between atoms: _158  and  _159
REMARK   67  A    between atoms: _161  and  _163
REMARK   68  A    between atoms: _163  and  _164
REMARK   69  A    between atoms: _163  and  _166
REMARK   70  A    between atoms: _166  and  _167
REMARK   71  A    between atoms: _172  and  _174
REMARK   72  A    between atoms: _174  and  _175
REMARK   73  A    between atoms: _174  and  _177
REMARK   74  A    between atoms: _177  and  _178
REMARK   75  A    between atoms: _178  and  _179
REMARK   76  A    between atoms: _179  and  _180
REMARK   77  A    between atoms: _180  and  MG_450
REMARK   78  A    between atoms: _182  and  _184
REMARK   79  A    between atoms: _184  and  _185
REMARK   80  A    between atoms: _184  and  _187
REMARK   81  A    between atoms: _187  and  _188
REMARK   82  A    between atoms: _188  and  _189
REMARK   83  A    between atoms: _192  and  _194
REMARK   84  A    between atoms: _194  and  _195
REMARK   85  A    between atoms: _194  and  _197
REMARK   86  A    between atoms: _197  and  _198
REMARK   87  A    between atoms: _198  and  _199
REMARK   88  A    between atoms: _201  and  _203
REMARK   89  A    between atoms: _203  and  _204
REMARK   90  A    between atoms: _203  and  _206
REMARK   91  A    between atoms: _206  and  _207
REMARK   92  A    between atoms: _212  and  _213
REMARK   93  A    between atoms: _215  and  _217
REMARK   94  A    between atoms: _217  and  _218
REMARK   95  A    between atoms: _217  and  _220
REMARK   96  A    between atoms: _220  and  _221
REMARK   97  A    between atoms: _221  and  _222
REMARK   98  A    between atoms: _222  and  _223
REMARK   99  A    between atoms: _223  and  _224
REMARK  100  A    between atoms: _228  and  _230
REMARK  101  A    between atoms: _230  and  _231
REMARK  102  A    between atoms: _230  and  _233
REMARK  103  A    between atoms: _235  and  _237
REMARK  104  A    between atoms: _237  and  _238
REMARK  105  A    between atoms: _237  and  _240
REMARK  106  A    between atoms: _240  and  _241
REMARK  107  A    between atoms: _241  and  _242
REMARK  108  A    between atoms: _245  and  _247
REMARK  109  A    between atoms: _247  and  _248
REMARK  110  A    between atoms: _247  and  _250
REMARK  111  A    between atoms: _250  and  _251
REMARK  112  A    between atoms: _256  and  _258
REMARK  113  A    between atoms: _258  and  _259
REMARK  114  A    between atoms: _262  and  _264
REMARK  115  A    between atoms: _264  and  _265
REMARK  116  A    between atoms: _264  and  _267
REMARK  117  A    between atoms: _267  and  _268
REMARK  118  A    between atoms: _268  and  _269
REMARK  119  A    between atoms: _271  and  _273
REMARK  120  A    between atoms: _273  and  _274
REMARK  121  A    between atoms: _273  and  _276
REMARK  122  A    between atoms: _276  and  _277
REMARK  123  A    between atoms: _287  and  _289
REMARK  124  A    between atoms: _289  and  _290
REMARK  125  A    between atoms: _289  and  _292
REMARK  126  A    between atoms: _292  and  _293
REMARK  127  A    between atoms: _296  and  _298
REMARK  128  A    between atoms: _298  and  _299
REMARK  129  A    between atoms: _298  and  _301
REMARK  130  A    between atoms: _301  and  _302
REMARK  131  A    between atoms: _302  and  _303
REMARK  132  A    between atoms: _308  and  _310
REMARK  133  A    between atoms: _310  and  _311
REMARK  134  A    between atoms: _310  and  _313
REMARK  135  A    between atoms: _313  and  _314
REMARK  136  A    between atoms: _317  and  _319
REMARK  137  A    between atoms: _319  and  _320
REMARK  138  A    between atoms: _319  and  _322
REMARK  139  A    between atoms: _322  and  _323
REMARK  140  A    between atoms: _323  and  _324
REMARK  141  A    between atoms: _329  and  _331
REMARK  142  A    between atoms: _331  and  _332
REMARK  143  A    between atoms: _331  and  _334
REMARK  144  A    between atoms: _334  and  _335
REMARK  145  A    between atoms: _341  and  _343
REMARK  146  A    between atoms: _343  and  _344
REMARK  147  A    between atoms: _343  and  _346
REMARK  148  A    between atoms: _348  and  _350
REMARK  149  A    between atoms: _350  and  _351
REMARK  150  A    between atoms: _350  and  _353
REMARK  151  A    between atoms: _353  and  _354
REMARK  152  A    between atoms: _354  and  _355
REMARK  153  A    between atoms: _357  and  _359
REMARK  154  A    between atoms: _359  and  _360
REMARK  155  A    between atoms: _359  and  _362
REMARK  156  A    between atoms: _362  and  _363
REMARK  157  A    between atoms: _368  and  _370
REMARK  158  A    between atoms: _370  and  _371
REMARK  159  A    between atoms: _374  and  _376
REMARK  160  A    between atoms: _376  and  _377
REMARK  161  A    between atoms: _376  and  _379
REMARK  162  A    between atoms: _382  and  _384
REMARK  163  A    between atoms: _384  and  _385
REMARK  164  A    between atoms: _384  and  _387
REMARK  165  A    between atoms: _387  and  _388
REMARK  166  A    between atoms: _391  and  _393
REMARK  167  A    between atoms: _393  and  _394
REMARK  168  A    between atoms: _393  and  _396
REMARK  169  A    between atoms: _396  and  _397
REMARK  170  A    between atoms: _399  and  _401
REMARK  171  A    between atoms: _401  and  _402
REMARK  172  A    between atoms: _401  and  _404
REMARK  173  A    between atoms: _404  and  _405
REMARK  174  A    between atoms: _415  and  _417
REMARK  175  A    between atoms: _417  and  _418
REMARK  176  A    between atoms: _417  and  _420
REMARK  177  A    between atoms: _420  and  _421
REMARK  178  A    between atoms: _423  and  _425
REMARK  179  A    between atoms: _425  and  _426
REMARK  180  A    between atoms: _425  and  _428
REMARK  181  A    between atoms: _428  and  _429
REMARK  182  A    between atoms: _429  and  _430
REMARK  183  A    between atoms: _433  and  _435
REMARK  184  A    between atoms: _435  and  _436
REMARK  185  A    between atoms: _435  and  _438
REMARK  186  A    between atoms: _438  and  _439
REMARK  187  A    between atoms: _439  and  _440
REMARK  188  A    between atoms: _440  and  _441
REMARK                            x       y       z     vdW  Elec       q    Type
REMARK                         _______ _______ _______ _____ _____    ______ ____
ROOT
ATOM      1  CA  TRP A   1      -5.391 -25.589 -32.190  0.00  0.00    +0.149 C 
ENDROOT
BRANCH   1   2
ATOM      2  C   TRP A   1      -5.743 -26.115 -33.570  0.00  0.00    +0.239 C 
ATOM      3  O   TRP A   1      -6.777 -25.740 -34.131  0.00  0.00    -0.274 OA
ATOM      4  N   ASP A   2      -4.924 -26.982 -34.135  0.00  0.00    -0.298 N 
ATOM      5  H   ASP A   2      -5.194 -27.363 -35.064  0.00  0.00    +0.150 HD
BRANCH   4   6
ATOM      6  CA  ASP A   2      -3.696 -27.436 -33.567  0.00  0.00    +0.148 C 
BRANCH   6   7
ATOM      7  C   ASP A   2      -2.750 -27.737 -34.751  0.00  0.00    +0.227 C 
ATOM      8  O   ASP A   2      -3.025 -27.382 -35.912  0.00  0.00    -0.286 OA
ENDBRANCH   6   7
BRANCH   6   9
ATOM      9  CB  ASP A   2      -3.866 -28.556 -32.562  0.00  0.00    +0.142 C 
BRANCH   9  10
ATOM     10  CG  ASP A   2      -4.356 -29.821 -33.208  0.00  0.00    +0.367 C 
ATOM     11  OD2 ASP A   2      -4.146 -30.888 -32.470  0.00  0.00    -0.246 OA
ATOM     12  OD1 ASP A   2      -4.817 -29.891 -34.342  0.00  0.00    -0.246 OA
ENDBRANCH   9  10
ENDBRANCH   6   9
ENDBRANCH   4   6
ENDBRANCH   1   2
BRANCH   1  13
ATOM     13  N   TRP A   1      -5.001 -24.188 -32.392  0.00  0.00    -0.238 NA
ATOM     14  H   TRP A   1      -5.712 -23.496 -32.703  0.00  0.00    +0.142 HD
ENDBRANCH   1  13
BRANCH   1  15
ATOM     15  CB  TRP A   1      -6.678 -25.678 -31.330  0.00  0.00    +0.054 C 
BRANCH  15  16
ATOM     16  CG  TRP A   1      -6.959 -27.125 -31.063  0.00  0.00    -0.002 A 
ATOM     17  CD2 TRP A   1      -6.267 -27.928 -30.098  0.00  0.00    +0.013 A 
ATOM     18  CE3 TRP A   1      -5.302 -27.632 -29.107  0.00  0.00    +0.001 A 
ATOM     19  CZ3 TRP A   1      -4.867 -28.687 -28.309  0.00  0.00    +0.000 A 
ATOM     20  CH2 TRP A   1      -5.311 -30.030 -28.504  0.00  0.00    +0.001 A 
ATOM     21  CZ2 TRP A   1      -6.230 -30.355 -29.495  0.00  0.00    +0.017 A 
ATOM     22  CE2 TRP A   1      -6.717 -29.284 -30.303  0.00  0.00    +0.056 A 
ATOM     23  NE1 TRP A   1      -7.584 -29.283 -31.406  0.00  0.00    -0.352 N 
ATOM     24  HE1 TRP A   1      -8.044 -30.118 -31.823  0.00  0.00    +0.166 HD
ATOM     25  CD1 TRP A   1      -7.720 -27.975 -31.843  0.00  0.00    +0.068 A 
ENDBRANCH  15  16
ENDBRANCH   1  15
TORSDOF 8
REMARK  Name = ../refined-set-2016/1px4/1px4_pocket.pdb
REMARK  188 active torsions:
REMARK  status: ('A' for Active; 'I' for Inactive)
REMARK    1  A    between atoms: _1  and  _3
REMARK    2  A    between atoms: _3  and  _4
REMARK    3  A    between atoms: _3  and  _6
REMARK    4  A    between atoms: _6  and  _7
REMARK    5  A    between atoms: _12  and  _13
REMARK    6  A    between atoms: _15  and  _17
REMARK    7  A    between atoms: _17  and  _18
REMARK    8  A    between atoms: _17  and  _20
REMARK    9  A    between atoms: _20  and  _21
REMARK   10  A    between atoms: _26  and  _28
REMARK   11  A    between atoms: _28  and  _29
REMARK   12  A    between atoms: _28  and  _31
REMARK   13  A    between atoms: _34  and  _36
REMARK   14  A    between atoms: _36  and  _37
REMARK   15  A    between atoms: _36  and  _39
REMARK   16  A    between atoms: _39  and  _40
REMARK   17  A    between atoms: _43  and  _45
REMARK   18  A    between atoms: _45  and  _46
REMARK   19  A    between atoms: _45  and  _48
REMARK   20  A    between atoms: _48  and  _49
REMARK   21  A    between atoms: _49  and  _50
REMARK   22  A    between atoms: _55  and  _57
REMARK   23  A    between atoms: _57  and  _58
REMARK   24  A    between atoms: _57  and  _60
REMARK   25  A    between atoms: _60  and  _61
REMARK   26  A    between atoms: _64  and  _66
REMARK   27  A    between atoms: _66  and  _67
REMARK   28  A    between atoms: _66  and  _69
REMARK   29  A    between atoms: _69  and  _70
REMARK   30  A    between atoms: _70  and  _71
REMARK   31  A    between atoms: _73  and  _75
REMARK   32  A    between atoms: _75  and  _76
REMARK   33  A    between atoms: _75  and  _78
REMARK   34  A    between atoms: _78  and  _79
REMARK   35  A    between atoms: _84  and  _86
REMARK   36  A    between atoms: _86  and  _87
REMARK   37  A    between atoms: _86  and  _89
REMARK   38  A    between atoms: _89  and  _90
REMARK   39  A    between atoms: _95  and  _97
REMARK   40  A    between atoms: _97  and  _98
REMARK   41  A    between atoms: _97  and  _100
REMARK   42  A    between atoms: _100  and  _101
REMARK   43  A    between atoms: _101  and  _102
REMARK   44  A    between atoms: _102  and  _103
REMARK   45  A    between atoms: _112  and  _114
REMARK   46  A    between atoms: _114  and  _115
REMARK   47  A    between atoms: _114  and  _117
REMARK   48  A    between atoms: _117  and  _118
REMARK   49  A    between atoms: _120  and  _122
REMARK   50  A    between atoms: _122  and  _123
REMARK   51  A    between atoms: _122  and  _125
REMARK   52  A    between atoms: _125  and  _126
REMARK   53  A    between atoms: _131  and  _133
REMARK   54  A    between atoms: _133  and  _134
REMARK   55  A    between atoms: _133  and  _136
REMARK   56  A    between atoms: _136  and  _137
REMARK   57  A    between atoms: _137  and  _138
REMARK   58  A    between atoms: _141  and  _143
REMARK   59  A    between atoms: _143  and  _144
REMARK   60  A    between atoms: _143  and  _146
REMARK   61  A    between atoms: _146  and  _147
REMARK   62  A    between atoms: _152  and  _154
REMARK   63  A    between atoms: _154  and  _155
REMARK   64  A    between atoms: _154  and  _157
REMARK   65  A    between atoms: _157  and  _158
REMARK   66  A    between atoms: _158  and  _159
REMARK   67  A    between atoms: _161  and  _163
REMARK   68  A    between atoms: _163  and  _164
REMARK   69  A    between atoms: _163  and  _166
REMARK   70  A    between atoms: _166  and  _167
REMARK   71  A    between atoms: _172  and  _174
REMARK   72  A    between atoms: _174  and  _175
REMARK   73  A    between atoms: _174  and  _177
REMARK   74  A    between atoms: _177  and  _178
REMARK   75  A    between atoms: _178  and  _179
REMARK   76  A    between atoms: _179  and  _180
REMARK   77  A    between atoms: _180  and  MG_450
REMARK   78  A    between atoms: _182  and  _184
REMARK   79  A    between atoms: _184  and  _185
REMARK   80  A    between atoms: _184  and  _187
REMARK   81  A    between atoms: _187  and  _188
REMARK   82  A    between atoms: _188  and  _189
REMARK   83  A    between atoms: _192  and  _194
REMARK   84  A    between atoms: _194  and  _195
REMARK   85  A    between atoms: _194  and  _197
REMARK   86  A    between atoms: _197  and  _198
REMARK   87  A    between atoms: _198  and  _199
REMARK   88  A    between atoms: _201  and  _203
REMARK   89  A    between atoms: _203  and  _204
REMARK   90  A    between atoms: _203  and  _206
REMARK   91  A    between atoms: _206  and  _207
REMARK   92  A    between atoms: _212  and  _213
REMARK   93  A    between atoms: _215  and  _217
REMARK   94  A    between atoms: _217  and  _218
REMARK   95  A    between atoms: _217  and  _220
REMARK   96  A    between atoms: _220  and  _221
REMARK   97  A    between atoms: _221  and  _222
REMARK   98  A    between atoms: _222  and  _223
REMARK   99  A    between atoms: _223  and  _224
REMARK  100  A    between atoms: _228  and  _230
REMARK  101  A    between atoms: _230  and  _231
REMARK  102  A    between atoms: _230  and  _233
REMARK  103  A    between atoms: _235  and  _237
REMARK  104  A    between atoms: _237  and  _238
REMARK  105  A    between atoms: _237  and  _240
REMARK  106  A    between atoms: _240  and  _241
REMARK  107  A    between atoms: _241  and  _242
REMARK  108  A    between atoms: _245  and  _247
REMARK  109  A    between atoms: _247  and  _248
REMARK  110  A    between atoms: _247  and  _250
REMARK  111  A    between atoms: _250  and  _251
REMARK  112  A    between atoms: _256  and  _258
REMARK  113  A    between atoms: _258  and  _259
REMARK  114  A    between atoms: _262  and  _264
REMARK  115  A    between atoms: _264  and  _265
REMARK  116  A    between atoms: _264  and  _267
REMARK  117  A    between atoms: _267  and  _268
REMARK  118  A    between atoms: _268  and  _269
REMARK  119  A    between atoms: _271  and  _273
REMARK  120  A    between atoms: _273  and  _274
REMARK  121  A    between atoms: _273  and  _276
REMARK  122  A    between atoms: _276  and  _277
REMARK  123  A    between atoms: _287  and  _289
REMARK  124  A    between atoms: _289  and  _290
REMARK  125  A    between atoms: _289  and  _292
REMARK  126  A    between atoms: _292  and  _293
REMARK  127  A    between atoms: _296  and  _298
REMARK  128  A    between atoms: _298  and  _299
REMARK  129  A    between atoms: _298  and  _301
REMARK  130  A    between atoms: _301  and  _302
REMARK  131  A    between atoms: _302  and  _303
REMARK  132  A    between atoms: _308  and  _310
REMARK  133  A    between atoms: _310  and  _311
REMARK  134  A    between atoms: _310  and  _313
REMARK  135  A    between atoms: _313  and  _314
REMARK  136  A    between atoms: _317  and  _319
REMARK  137  A    between atoms: _319  and  _320
REMARK  138  A    between atoms: _319  and  _322
REMARK  139  A    between atoms: _322  and  _323
REMARK  140  A    between atoms: _323  and  _324
REMARK  141  A    between atoms: _329  and  _331
REMARK  142  A    between atoms: _331  and  _332
REMARK  143  A    between atoms: _331  and  _334
REMARK  144  A    between atoms: _334  and  _335
REMARK  145  A    between atoms: _341  and  _343
REMARK  146  A    between atoms: _343  and  _344
REMARK  147  A    between atoms: _343  and  _346
REMARK  148  A    between atoms: _348  and  _350
REMARK  149  A    between atoms: _350  and  _351
REMARK  150  A    between atoms: _350  and  _353
REMARK  151  A    between atoms: _353  and  _354
REMARK  152  A    between atoms: _354  and  _355
REMARK  153  A    between atoms: _357  and  _359
REMARK  154  A    between atoms: _359  and  _360
REMARK  155  A    between atoms: _359  and  _362
REMARK  156  A    between atoms: _362  and  _363
REMARK  157  A    between atoms: _368  and  _370
REMARK  158  A    between atoms: _370  and  _371
REMARK  159  A    between atoms: _374  and  _376
REMARK  160  A    between atoms: _376  and  _377
REMARK  161  A    between atoms: _376  and  _379
REMARK  162  A    between atoms: _382  and  _384
REMARK  163  A    between atoms: _384  and  _385
REMARK  164  A    between atoms: _384  and  _387
REMARK  165  A    between atoms: _387  and  _388
REMARK  166  A    between atoms: _391  and  _393
REMARK  167  A    between atoms: _393  and  _394
REMARK  168  A    between atoms: _393  and  _396
REMARK  169  A    between atoms: _396  and  _397
REMARK  170  A    between atoms: _399  and  _401
REMARK  171  A    between atoms: _401  and  _402
REMARK  172  A    between atoms: _401  and  _404
REMARK  173  A    between atoms: _404  and  _405
REMARK  174  A    between atoms: _415  and  _417
REMARK  175  A    between atoms: _417  and  _418
REMARK  176  A    between atoms: _417  and  _420
REMARK  177  A    between atoms: _420  and  _421
REMARK  178  A    between atoms: _423  and  _425
REMARK  179  A    between atoms: _425  and  _426
REMARK  180  A    between atoms: _425  and  _428
REMARK  181  A    between atoms: _428  and  _429
REMARK  182  A    between atoms: _429  and  _430
REMARK  183  A    between atoms: _433  and  _435
REMARK  184  A    between atoms: _435  and  _436
REMARK  185  A    between atoms: _435  and  _438
REMARK  186  A    between atoms: _438  and  _439
REMARK  187  A    between atoms: _439  and  _440
REMARK  188  A    between atoms: _440  and  _441
REMARK                            x       y       z     vdW  Elec       q    Type
REMARK                         _______ _______ _______ _____ _____    ______ ____
ROOT
ATOM      1  CB  GLN A   1      -5.449 -37.157 -34.588  0.00  0.00    +0.035 C 
ENDROOT
BRANCH   1   2
ATOM      2  CA  GLN A   1      -4.887 -37.017 -36.006  0.00  0.00    +0.134 C 
BRANCH   2   3
ATOM      3  N   GLN A   1      -5.164 -35.700 -36.541  0.00  0.00    -0.239 NA
ATOM      4  H   GLN A   1      -6.005 -35.166 -36.242  0.00  0.00    +0.142 HD
ENDBRANCH   2   3
BRANCH   2   5
ATOM      5  C   GLN A   1      -5.538 -38.045 -36.860  0.00  0.00    +0.224 C 
ATOM      6  O   GLN A   1      -6.411 -38.768 -36.396  0.00  0.00    -0.287 OA
ENDBRANCH   2   5
ENDBRANCH   1   2
BRANCH   1   7
ATOM      7  CG  GLN A   1      -4.536 -36.398 -33.569  0.00  0.00    +0.087 C 
BRANCH   7   8
ATOM      8  CD  GLN A   1      -4.961 -36.651 -32.151  0.00  0.00    +0.219 C 
ATOM      9  NE2 GLN A   1      -5.299 -35.601 -31.439  0.00  0.00    -0.329 N 
ATOM     10 HE21 GLN A   1      -5.704 -35.725 -30.489  0.00  0.00    +0.145 HD
ATOM     11 HE22 GLN A   1      -5.162 -34.645 -31.825  0.00  0.00    +0.145 HD
ATOM     12  OE1 GLN A   1      -5.101 -37.807 -31.745  0.00  0.00    -0.275 OA
ENDBRANCH   7   8
ENDBRANCH   1   7
TORSDOF 5
REMARK  Name = ../refined-set-2016/1px4/1px4_pocket.pdb
REMARK  188 active torsions:
REMARK  status: ('A' for Active; 'I' for Inactive)
REMARK    1  A    between atoms: _1  and  _3
REMARK    2  A    between atoms: _3  and  _4
REMARK    3  A    between atoms: _3  and  _6
REMARK    4  A    between atoms: _6  and  _7
REMARK    5  A    between atoms: _12  and  _13
REMARK    6  A    between atoms: _15  and  _17
REMARK    7  A    between atoms: _17  and  _18
REMARK    8  A    between atoms: _17  and  _20
REMARK    9  A    between atoms: _20  and  _21
REMARK   10  A    between atoms: _26  and  _28
REMARK   11  A    between atoms: _28  and  _29
REMARK   12  A    between atoms: _28  and  _31
REMARK   13  A    between atoms: _34  and  _36
REMARK   14  A    between atoms: _36  and  _37
REMARK   15  A    between atoms: _36  and  _39
REMARK   16  A    between atoms: _39  and  _40
REMARK   17  A    between atoms: _43  and  _45
REMARK   18  A    between atoms: _45  and  _46
REMARK   19  A    between atoms: _45  and  _48
REMARK   20  A    between atoms: _48  and  _49
REMARK   21  A    between atoms: _49  and  _50
REMARK   22  A    between atoms: _55  and  _57
REMARK   23  A    between atoms: _57  and  _58
REMARK   24  A    between atoms: _57  and  _60
REMARK   25  A    between atoms: _60  and  _61
REMARK   26  A    between atoms: _64  and  _66
REMARK   27  A    between atoms: _66  and  _67
REMARK   28  A    between atoms: _66  and  _69
REMARK   29  A    between atoms: _69  and  _70
REMARK   30  A    between atoms: _70  and  _71
REMARK   31  A    between atoms: _73  and  _75
REMARK   32  A    between atoms: _75  and  _76
REMARK   33  A    between atoms: _75  and  _78
REMARK   34  A    between atoms: _78  and  _79
REMARK   35  A    between atoms: _84  and  _86
REMARK   36  A    between atoms: _86  and  _87
REMARK   37  A    between atoms: _86  and  _89
REMARK   38  A    between atoms: _89  and  _90
REMARK   39  A    between atoms: _95  and  _97
REMARK   40  A    between atoms: _97  and  _98
REMARK   41  A    between atoms: _97  and  _100
REMARK   42  A    between atoms: _100  and  _101
REMARK   43  A    between atoms: _101  and  _102
REMARK   44  A    between atoms: _102  and  _103
REMARK   45  A    between atoms: _112  and  _114
REMARK   46  A    between atoms: _114  and  _115
REMARK   47  A    between atoms: _114  and  _117
REMARK   48  A    between atoms: _117  and  _118
REMARK   49  A    between atoms: _120  and  _122
REMARK   50  A    between atoms: _122  and  _123
REMARK   51  A    between atoms: _122  and  _125
REMARK   52  A    between atoms: _125  and  _126
REMARK   53  A    between atoms: _131  and  _133
REMARK   54  A    between atoms: _133  and  _134
REMARK   55  A    between atoms: _133  and  _136
REMARK   56  A    between atoms: _136  and  _137
REMARK   57  A    between atoms: _137  and  _138
REMARK   58  A    between atoms: _141  and  _143
REMARK   59  A    between atoms: _143  and  _144
REMARK   60  A    between atoms: _143  and  _146
REMARK   61  A    between atoms: _146  and  _147
REMARK   62  A    between atoms: _152  and  _154
REMARK   63  A    between atoms: _154  and  _155
REMARK   64  A    between atoms: _154  and  _157
REMARK   65  A    between atoms: _157  and  _158
REMARK   66  A    between atoms: _158  and  _159
REMARK   67  A    between atoms: _161  and  _163
REMARK   68  A    between atoms: _163  and  _164
REMARK   69  A    between atoms: _163  and  _166
REMARK   70  A    between atoms: _166  and  _167
REMARK   71  A    between atoms: _172  and  _174
REMARK   72  A    between atoms: _174  and  _175
REMARK   73  A    between atoms: _174  and  _177
REMARK   74  A    between atoms: _177  and  _178
REMARK   75  A    between atoms: _178  and  _179
REMARK   76  A    between atoms: _179  and  _180
REMARK   77  A    between atoms: _180  and  MG_450
REMARK   78  A    between atoms: _182  and  _184
REMARK   79  A    between atoms: _184  and  _185
REMARK   80  A    between atoms: _184  and  _187
REMARK   81  A    between atoms: _187  and  _188
REMARK   82  A    between atoms: _188  and  _189
REMARK   83  A    between atoms: _192  and  _194
REMARK   84  A    between atoms: _194  and  _195
REMARK   85  A    between atoms: _194  and  _197
REMARK   86  A    between atoms: _197  and  _198
REMARK   87  A    between atoms: _198  and  _199
REMARK   88  A    between atoms: _201  and  _203
REMARK   89  A    between atoms: _203  and  _204
REMARK   90  A    between atoms: _203  and  _206
REMARK   91  A    between atoms: _206  and  _207
REMARK   92  A    between atoms: _212  and  _213
REMARK   93  A    between atoms: _215  and  _217
REMARK   94  A    between atoms: _217  and  _218
REMARK   95  A    between atoms: _217  and  _220
REMARK   96  A    between atoms: _220  and  _221
REMARK   97  A    between atoms: _221  and  _222
REMARK   98  A    between atoms: _222  and  _223
REMARK   99  A    between atoms: _223  and  _224
REMARK  100  A    between atoms: _228  and  _230
REMARK  101  A    between atoms: _230  and  _231
REMARK  102  A    between atoms: _230  and  _233
REMARK  103  A    between atoms: _235  and  _237
REMARK  104  A    between atoms: _237  and  _238
REMARK  105  A    between atoms: _237  and  _240
REMARK  106  A    between atoms: _240  and  _241
REMARK  107  A    between atoms: _241  and  _242
REMARK  108  A    between atoms: _245  and  _247
REMARK  109  A    between atoms: _247  and  _248
REMARK  110  A    between atoms: _247  and  _250
REMARK  111  A    between atoms: _250  and  _251
REMARK  112  A    between atoms: _256  and  _258
REMARK  113  A    between atoms: _258  and  _259
REMARK  114  A    between atoms: _262  and  _264
REMARK  115  A    between atoms: _264  and  _265
REMARK  116  A    between atoms: _264  and  _267
REMARK  117  A    between atoms: _267  and  _268
REMARK  118  A    between atoms: _268  and  _269
REMARK  119  A    between atoms: _271  and  _273
REMARK  120  A    between atoms: _273  and  _274
REMARK  121  A    between atoms: _273  and  _276
REMARK  122  A    between atoms: _276  and  _277
REMARK  123  A    between atoms: _287  and  _289
REMARK  124  A    between atoms: _289  and  _290
REMARK  125  A    between atoms: _289  and  _292
REMARK  126  A    between atoms: _292  and  _293
REMARK  127  A    between atoms: _296  and  _298
REMARK  128  A    between atoms: _298  and  _299
REMARK  129  A    between atoms: _298  and  _301
REMARK  130  A    between atoms: _301  and  _302
REMARK  131  A    between atoms: _302  and  _303
REMARK  132  A    between atoms: _308  and  _310
REMARK  133  A    between atoms: _310  and  _311
REMARK  134  A    between atoms: _310  and  _313
REMARK  135  A    between atoms: _313  and  _314
REMARK  136  A    between atoms: _317  and  _319
REMARK  137  A    between atoms: _319  and  _320
REMARK  138  A    between atoms: _319  and  _322
REMARK  139  A    between atoms: _322  and  _323
REMARK  140  A    between atoms: _323  and  _324
REMARK  141  A    between atoms: _329  and  _331
REMARK  142  A    between atoms: _331  and  _332
REMARK  143  A    between atoms: _331  and  _334
REMARK  144  A    between atoms: _334  and  _335
REMARK  145  A    between atoms: _341  and  _343
REMARK  146  A    between atoms: _343  and  _344
REMARK  147  A    between atoms: _343  and  _346
REMARK  148  A    between atoms: _348  and  _350
REMARK  149  A    between atoms: _350  and  _351
REMARK  150  A    between atoms: _350  and  _353
REMARK  151  A    between atoms: _353  and  _354
REMARK  152  A    between atoms: _354  and  _355
REMARK  153  A    between atoms: _357  and  _359
REMARK  154  A    between atoms: _359  and  _360
REMARK  155  A    between atoms: _359  and  _362
REMARK  156  A    between atoms: _362  and  _363
REMARK  157  A    between atoms: _368  and  _370
REMARK  158  A    between atoms: _370  and  _371
REMARK  159  A    between atoms: _374  and  _376
REMARK  160  A    between atoms: _376  and  _377
REMARK  161  A    between atoms: _376  and  _379
REMARK  162  A    between atoms: _382  and  _384
REMARK  163  A    between atoms: _384  and  _385
REMARK  164  A    between atoms: _384  and  _387
REMARK  165  A    between atoms: _387  and  _388
REMARK  166  A    between atoms: _391  and  _393
REMARK  167  A    between atoms: _393  and  _394
REMARK  168  A    between atoms: _393  and  _396
REMARK  169  A    between atoms: _396  and  _397
REMARK  170  A    between atoms: _399  and  _401
REMARK  171  A    between atoms: _401  and  _402
REMARK  172  A    between atoms: _401  and  _404
REMARK  173  A    between atoms: _404  and  _405
REMARK  174  A    between atoms: _415  and  _417
REMARK  175  A    between atoms: _417  and  _418
REMARK  176  A    between atoms: _417  and  _420
REMARK  177  A    between atoms: _420  and  _421
REMARK  178  A    between atoms: _423  and  _425
REMARK  179  A    between atoms: _425  and  _426
REMARK  180  A    between atoms: _425  and  _428
REMARK  181  A    between atoms: _428  and  _429
REMARK  182  A    between atoms: _429  and  _430
REMARK  183  A    between atoms: _433  and  _435
REMARK  184  A    between atoms: _435  and  _436
REMARK  185  A    between atoms: _435  and  _438
REMARK  186  A    between atoms: _438  and  _439
REMARK  187  A    between atoms: _439  and  _440
REMARK  188  A    between atoms: _440  and  _441
REMARK                            x       y       z     vdW  Elec       q    Type
REMARK                         _______ _______ _______ _____ _____    ______ ____
ROOT
ATOM      1  CA  ASP A   1     -16.284 -38.351 -32.261  0.00  0.00    +0.144 C 
ENDROOT
BRANCH   1   2
ATOM      2  N   ASP A   1     -16.073 -39.735 -31.904  0.00  0.00    -0.239 NA
ATOM      3  H   ASP A   1     -15.108 -40.117 -31.840  0.00  0.00    +0.142 HD
ENDBRANCH   1   2
BRANCH   1   4
ATOM      4  C   ASP A   1     -15.934 -37.982 -33.698  0.00  0.00    +0.225 C 
ATOM      5  O   ASP A   1     -15.541 -36.840 -34.026  0.00  0.00    -0.287 OA
ENDBRANCH   1   4
BRANCH   1   6
ATOM      6  CB  ASP A   1     -15.689 -37.374 -31.193  0.00  0.00    +0.139 C 
BRANCH   6   7
ATOM      7  CG  ASP A   1     -16.688 -37.290 -30.050  0.00  0.00    +0.367 C 
ATOM      8  OD2 ASP A   1     -16.262 -37.813 -28.921  0.00  0.00    -0.246 OA
ATOM      9  OD1 ASP A   1     -17.838 -36.965 -30.226  0.00  0.00    -0.246 OA
ENDBRANCH   6   7
ENDBRANCH   1   6
TORSDOF 4
REMARK  Name = ../refined-set-2016/1px4/1px4_pocket.pdb
REMARK  188 active torsions:
REMARK  status: ('A' for Active; 'I' for Inactive)
REMARK    1  A    between atoms: _1  and  _3
REMARK    2  A    between atoms: _3  and  _4
REMARK    3  A    between atoms: _3  and  _6
REMARK    4  A    between atoms: _6  and  _7
REMARK    5  A    between atoms: _12  and  _13
REMARK    6  A    between atoms: _15  and  _17
REMARK    7  A    between atoms: _17  and  _18
REMARK    8  A    between atoms: _17  and  _20
REMARK    9  A    between atoms: _20  and  _21
REMARK   10  A    between atoms: _26  and  _28
REMARK   11  A    between atoms: _28  and  _29
REMARK   12  A    between atoms: _28  and  _31
REMARK   13  A    between atoms: _34  and  _36
REMARK   14  A    between atoms: _36  and  _37
REMARK   15  A    between atoms: _36  and  _39
REMARK   16  A    between atoms: _39  and  _40
REMARK   17  A    between atoms: _43  and  _45
REMARK   18  A    between atoms: _45  and  _46
REMARK   19  A    between atoms: _45  and  _48
REMARK   20  A    between atoms: _48  and  _49
REMARK   21  A    between atoms: _49  and  _50
REMARK   22  A    between atoms: _55  and  _57
REMARK   23  A    between atoms: _57  and  _58
REMARK   24  A    between atoms: _57  and  _60
REMARK   25  A    between atoms: _60  and  _61
REMARK   26  A    between atoms: _64  and  _66
REMARK   27  A    between atoms: _66  and  _67
REMARK   28  A    between atoms: _66  and  _69
REMARK   29  A    between atoms: _69  and  _70
REMARK   30  A    between atoms: _70  and  _71
REMARK   31  A    between atoms: _73  and  _75
REMARK   32  A    between atoms: _75  and  _76
REMARK   33  A    between atoms: _75  and  _78
REMARK   34  A    between atoms: _78  and  _79
REMARK   35  A    between atoms: _84  and  _86
REMARK   36  A    between atoms: _86  and  _87
REMARK   37  A    between atoms: _86  and  _89
REMARK   38  A    between atoms: _89  and  _90
REMARK   39  A    between atoms: _95  and  _97
REMARK   40  A    between atoms: _97  and  _98
REMARK   41  A    between atoms: _97  and  _100
REMARK   42  A    between atoms: _100  and  _101
REMARK   43  A    between atoms: _101  and  _102
REMARK   44  A    between atoms: _102  and  _103
REMARK   45  A    between atoms: _112  and  _114
REMARK   46  A    between atoms: _114  and  _115
REMARK   47  A    between atoms: _114  and  _117
REMARK   48  A    between atoms: _117  and  _118
REMARK   49  A    between atoms: _120  and  _122
REMARK   50  A    between atoms: _122  and  _123
REMARK   51  A    between atoms: _122  and  _125
REMARK   52  A    between atoms: _125  and  _126
REMARK   53  A    between atoms: _131  and  _133
REMARK   54  A    between atoms: _133  and  _134
REMARK   55  A    between atoms: _133  and  _136
REMARK   56  A    between atoms: _136  and  _137
REMARK   57  A    between atoms: _137  and  _138
REMARK   58  A    between atoms: _141  and  _143
REMARK   59  A    between atoms: _143  and  _144
REMARK   60  A    between atoms: _143  and  _146
REMARK   61  A    between atoms: _146  and  _147
REMARK   62  A    between atoms: _152  and  _154
REMARK   63  A    between atoms: _154  and  _155
REMARK   64  A    between atoms: _154  and  _157
REMARK   65  A    between atoms: _157  and  _158
REMARK   66  A    between atoms: _158  and  _159
REMARK   67  A    between atoms: _161  and  _163
REMARK   68  A    between atoms: _163  and  _164
REMARK   69  A    between atoms: _163  and  _166
REMARK   70  A    between atoms: _166  and  _167
REMARK   71  A    between atoms: _172  and  _174
REMARK   72  A    between atoms: _174  and  _175
REMARK   73  A    between atoms: _174  and  _177
REMARK   74  A    between atoms: _177  and  _178
REMARK   75  A    between atoms: _178  and  _179
REMARK   76  A    between atoms: _179  and  _180
REMARK   77  A    between atoms: _180  and  MG_450
REMARK   78  A    between atoms: _182  and  _184
REMARK   79  A    between atoms: _184  and  _185
REMARK   80  A    between atoms: _184  and  _187
REMARK   81  A    between atoms: _187  and  _188
REMARK   82  A    between atoms: _188  and  _189
REMARK   83  A    between atoms: _192  and  _194
REMARK   84  A    between atoms: _194  and  _195
REMARK   85  A    between atoms: _194  and  _197
REMARK   86  A    between atoms: _197  and  _198
REMARK   87  A    between atoms: _198  and  _199
REMARK   88  A    between atoms: _201  and  _203
REMARK   89  A    between atoms: _203  and  _204
REMARK   90  A    between atoms: _203  and  _206
REMARK   91  A    between atoms: _206  and  _207
REMARK   92  A    between atoms: _212  and  _213
REMARK   93  A    between atoms: _215  and  _217
REMARK   94  A    between atoms: _217  and  _218
REMARK   95  A    between atoms: _217  and  _220
REMARK   96  A    between atoms: _220  and  _221
REMARK   97  A    between atoms: _221  and  _222
REMARK   98  A    between atoms: _222  and  _223
REMARK   99  A    between atoms: _223  and  _224
REMARK  100  A    between atoms: _228  and  _230
REMARK  101  A    between atoms: _230  and  _231
REMARK  102  A    between atoms: _230  and  _233
REMARK  103  A    between atoms: _235  and  _237
REMARK  104  A    between atoms: _237  and  _238
REMARK  105  A    between atoms: _237  and  _240
REMARK  106  A    between atoms: _240  and  _241
REMARK  107  A    between atoms: _241  and  _242
REMARK  108  A    between atoms: _245  and  _247
REMARK  109  A    between atoms: _247  and  _248
REMARK  110  A    between atoms: _247  and  _250
REMARK  111  A    between atoms: _250  and  _251
REMARK  112  A    between atoms: _256  and  _258
REMARK  113  A    between atoms: _258  and  _259
REMARK  114  A    between atoms: _262  and  _264
REMARK  115  A    between atoms: _264  and  _265
REMARK  116  A    between atoms: _264  and  _267
REMARK  117  A    between atoms: _267  and  _268
REMARK  118  A    between atoms: _268  and  _269
REMARK  119  A    between atoms: _271  and  _273
REMARK  120  A    between atoms: _273  and  _274
REMARK  121  A    between atoms: _273  and  _276
REMARK  122  A    between atoms: _276  and  _277
REMARK  123  A    between atoms: _287  and  _289
REMARK  124  A    between atoms: _289  and  _290
REMARK  125  A    between atoms: _289  and  _292
REMARK  126  A    between atoms: _292  and  _293
REMARK  127  A    between atoms: _296  and  _298
REMARK  128  A    between atoms: _298  and  _299
REMARK  129  A    between atoms: _298  and  _301
REMARK  130  A    between atoms: _301  and  _302
REMARK  131  A    between atoms: _302  and  _303
REMARK  132  A    between atoms: _308  and  _310
REMARK  133  A    between atoms: _310  and  _311
REMARK  134  A    between atoms: _310  and  _313
REMARK  135  A    between atoms: _313  and  _314
REMARK  136  A    between atoms: _317  and  _319
REMARK  137  A    between atoms: _319  and  _320
REMARK  138  A    between atoms: _319  and  _322
REMARK  139  A    between atoms: _322  and  _323
REMARK  140  A    between atoms: _323  and  _324
REMARK  141  A    between atoms: _329  and  _331
REMARK  142  A    between atoms: _331  and  _332
REMARK  143  A    between atoms: _331  and  _334
REMARK  144  A    between atoms: _334  and  _335
REMARK  145  A    between atoms: _341  and  _343
REMARK  146  A    between atoms: _343  and  _344
REMARK  147  A    between atoms: _343  and  _346
REMARK  148  A    between atoms: _348  and  _350
REMARK  149  A    between atoms: _350  and  _351
REMARK  150  A    between atoms: _350  and  _353
REMARK  151  A    between atoms: _353  and  _354
REMARK  152  A    between atoms: _354  and  _355
REMARK  153  A    between atoms: _357  and  _359
REMARK  154  A    between atoms: _359  and  _360
REMARK  155  A    between atoms: _359  and  _362
REMARK  156  A    between atoms: _362  and  _363
REMARK  157  A    between atoms: _368  and  _370
REMARK  158  A    between atoms: _370  and  _371
REMARK  159  A    between atoms: _374  and  _376
REMARK  160  A    between atoms: _376  and  _377
REMARK  161  A    between atoms: _376  and  _379
REMARK  162  A    between atoms: _382  and  _384
REMARK  163  A    between atoms: _384  and  _385
REMARK  164  A    between atoms: _384  and  _387
REMARK  165  A    between atoms: _387  and  _388
REMARK  166  A    between atoms: _391  and  _393
REMARK  167  A    between atoms: _393  and  _394
REMARK  168  A    between atoms: _393  and  _396
REMARK  169  A    between atoms: _396  and  _397
REMARK  170  A    between atoms: _399  and  _401
REMARK  171  A    between atoms: _401  and  _402
REMARK  172  A    between atoms: _401  and  _404
REMARK  173  A    between atoms: _404  and  _405
REMARK  174  A    between atoms: _415  and  _417
REMARK  175  A    between atoms: _417  and  _418
REMARK  176  A    between atoms: _417  and  _420
REMARK  177  A    between atoms: _420  and  _421
REMARK  178  A    between atoms: _423  and  _425
REMARK  179  A    between atoms: _425  and  _426
REMARK  180  A    between atoms: _425  and  _428
REMARK  181  A    between atoms: _428  and  _429
REMARK  182  A    between atoms: _429  and  _430
REMARK  183  A    between atoms: _433  and  _435
REMARK  184  A    between atoms: _435  and  _436
REMARK  185  A    between atoms: _435  and  _438
REMARK  186  A    between atoms: _438  and  _439
REMARK  187  A    between atoms: _439  and  _440
REMARK  188  A    between atoms: _440  and  _441
REMARK                            x       y       z     vdW  Elec       q    Type
REMARK                         _______ _______ _______ _____ _____    ______ ____
ROOT
ATOM      1  C   PHE A   2     -11.698 -34.320 -34.217  0.00  0.00    +0.241 C 
ATOM      2  O   PHE A   2     -11.098 -33.436 -33.602  0.00  0.00    -0.273 OA
ATOM      3  N   CYS A   3     -11.147 -35.461 -34.661  0.00  0.00    -0.296 N 
ATOM      4  H   CYS A   3     -11.712 -36.166 -35.177  0.00  0.00    +0.150 HD
ENDROOT
BRANCH   3   5
ATOM      5  CA  CYS A   3      -9.757 -35.675 -34.401  0.00  0.00    +0.160 C 
BRANCH   5   6
ATOM      6  C   CYS A   3      -8.868 -34.951 -35.396  0.00  0.00    +0.242 C 
ATOM      7  O   CYS A   3      -7.640 -34.956 -35.242  0.00  0.00    -0.273 OA
ATOM      8  N   MET A   4      -9.457 -34.359 -36.430  0.00  0.00    -0.297 N 
ATOM      9  H   MET A   4     -10.493 -34.358 -36.520  0.00  0.00    +0.150 HD
BRANCH   8  10
ATOM     10  CA  MET A   4      -8.622 -33.708 -37.440  0.00  0.00    +0.149 C 
BRANCH  10  11
ATOM     11  C   MET A   4      -8.798 -32.186 -37.341  0.00  0.00    +0.241 C 
ATOM     12  N   ASN A   5      -7.848 -31.534 -36.663  0.00  0.00    -0.298 N 
ATOM     13  H   ASN A   5      -7.048 -32.063 -36.260  0.00  0.00    +0.150 HD
ATOM     14  O   MET A   4      -9.783 -31.609 -37.826  0.00  0.00    -0.273 OA
BRANCH  12  15
ATOM     15  CA  ASN A   5      -7.923 -30.075 -36.482  0.00  0.00    +0.146 C 
BRANCH  15  16
ATOM     16  C   ASN A   5      -6.611 -29.380 -36.852  0.00  0.00    +0.227 C 
ATOM     17  O   ASN A   5      -6.387 -28.253 -36.397  0.00  0.00    -0.286 OA
ENDBRANCH  15  16
BRANCH  15  18
ATOM     18  CB  ASN A   5      -8.266 -29.673 -35.011  0.00  0.00    +0.112 C 
BRANCH  18  19
ATOM     19  CG  ASN A   5      -9.240 -30.618 -34.290  0.00  0.00    +0.222 C 
ATOM     20  OD1 ASN A   5      -8.842 -31.099 -33.198  0.00  0.00    -0.275 OA
ATOM     21  ND2 ASN A   5     -10.422 -30.983 -34.864  0.00  0.00    -0.329 N 
ATOM     22 HD21 ASN A   5     -11.032 -31.684 -34.397  0.00  0.00    +0.145 HD
ATOM     23 HD22 ASN A   5     -10.713 -30.560 -35.768  0.00  0.00    +0.145 HD
ENDBRANCH  18  19
ENDBRANCH  15  18
ENDBRANCH  12  15
ENDBRANCH  10  11
BRANCH  10  24
ATOM     24  CB  MET A   4      -9.031 -34.227 -38.854  0.00  0.00    +0.041 C 
BRANCH  24  25
ATOM     25  CG  MET A   4      -8.779 -35.721 -38.934  0.00  0.00    +0.060 C 
BRANCH  25  26
ATOM     26  SD  MET A   4      -9.129 -36.356 -40.600  0.00  0.00    -0.139 S 
ATOM     27  CE  MET A   4     -10.904 -36.014 -40.709  0.00  0.00    +0.069 C 
ENDBRANCH  25  26
ENDBRANCH  24  25
ENDBRANCH  10  24
ENDBRANCH   8  10
ENDBRANCH   5   6
BRANCH   5  28
ATOM     28  CB  CYS A   3      -9.377 -37.173 -34.338  0.00  0.00    +0.098 C 
ATOM     29  SG  CYS A   3      -9.846 -38.057 -35.847  0.00  0.00    -0.080 S 
ENDBRANCH   5  28
ENDBRANCH   3   5
BRANCH   1  30
ATOM     30  CA  PHE A   2     -13.154 -34.106 -34.503  0.00  0.00    +0.153 C 
BRANCH  30  32
ATOM     31  C   GLN A   1     -13.186 -35.096 -36.684  0.00  0.00    +0.238 C 
ATOM     32  N   PHE A   2     -13.695 -35.066 -35.451  0.00  0.00    -0.297 N 
ATOM     33  H   PHE A   2     -14.460 -35.714 -35.175  0.00  0.00    +0.150 HD
ATOM     34  O   GLN A   1     -12.264 -34.353 -37.054  0.00  0.00    -0.274 OA
BRANCH  31  35
ATOM     35  CA  GLN A   1     -13.815 -36.096 -37.663  0.00  0.00    +0.145 C 
BRANCH  35  36
ATOM     36  N   GLN A   1     -14.921 -36.849 -37.160  0.00  0.00    -0.238 NA
ATOM     37  H   GLN A   1     -15.895 -36.591 -37.418  0.00  0.00    +0.142 HD
ENDBRANCH  35  36
BRANCH  35  38
ATOM     38  CB  GLN A   1     -14.088 -35.452 -39.057  0.00  0.00    +0.036 C 
BRANCH  38  39
ATOM     39  CG  GLN A   1     -15.121 -34.301 -39.092  0.00  0.00    +0.087 C 
BRANCH  39  40
ATOM     40  CD  GLN A   1     -16.523 -34.745 -39.436  0.00  0.00    +0.219 C 
ATOM     41  NE2 GLN A   1     -16.916 -35.865 -38.841  0.00  0.00    -0.329 N 
ATOM     42 HE21 GLN A   1     -16.251 -36.398 -38.244  0.00  0.00    +0.145 HD
ATOM     43 HE22 GLN A   1     -17.888 -36.210 -38.972  0.00  0.00    +0.145 HD
ATOM     44  OE1 GLN A   1     -17.287 -34.060 -40.170  0.00  0.00    -0.275 OA
ENDBRANCH  39  40
ENDBRANCH  38  39
ENDBRANCH  35  38
ENDBRANCH  31  35
ENDBRANCH  30  32
BRANCH  30  45
ATOM     45  CB  PHE A   2     -14.003 -33.946 -33.244  0.00  0.00    +0.055 C 
BRANCH  45  46
ATOM     46  CG  PHE A   2     -15.053 -32.873 -33.539  0.00  0.00    -0.020 A 
ATOM     47  CD2 PHE A   2     -14.785 -31.514 -33.350  0.00  0.00    -0.004 A 
ATOM     48  CE2 PHE A   2     -15.713 -30.502 -33.638  0.00  0.00    -0.000 A 
ATOM     49  CZ  PHE A   2     -16.958 -30.836 -34.164  0.00  0.00    -0.000 A 
ATOM     50  CE1 PHE A   2     -17.228 -32.193 -34.378  0.00  0.00    -0.000 A 
ATOM     51  CD1 PHE A   2     -16.306 -33.202 -34.076  0.00  0.00    -0.004 A 
ENDBRANCH  45  46
ENDBRANCH  30  45
ENDBRANCH   1  30
TORSDOF 21
REMARK  Name = ../refined-set-2016/1px4/1px4_pocket.pdb
REMARK  188 active torsions:
REMARK  status: ('A' for Active; 'I' for Inactive)
REMARK    1  A    between atoms: _1  and  _3
REMARK    2  A    between atoms: _3  and  _4
REMARK    3  A    between atoms: _3  and  _6
REMARK    4  A    between atoms: _6  and  _7
REMARK    5  A    between atoms: _12  and  _13
REMARK    6  A    between atoms: _15  and  _17
REMARK    7  A    between atoms: _17  and  _18
REMARK    8  A    between atoms: _17  and  _20
REMARK    9  A    between atoms: _20  and  _21
REMARK   10  A    between atoms: _26  and  _28
REMARK   11  A    between atoms: _28  and  _29
REMARK   12  A    between atoms: _28  and  _31
REMARK   13  A    between atoms: _34  and  _36
REMARK   14  A    between atoms: _36  and  _37
REMARK   15  A    between atoms: _36  and  _39
REMARK   16  A    between atoms: _39  and  _40
REMARK   17  A    between atoms: _43  and  _45
REMARK   18  A    between atoms: _45  and  _46
REMARK   19  A    between atoms: _45  and  _48
REMARK   20  A    between atoms: _48  and  _49
REMARK   21  A    between atoms: _49  and  _50
REMARK   22  A    between atoms: _55  and  _57
REMARK   23  A    between atoms: _57  and  _58
REMARK   24  A    between atoms: _57  and  _60
REMARK   25  A    between atoms: _60  and  _61
REMARK   26  A    between atoms: _64  and  _66
REMARK   27  A    between atoms: _66  and  _67
REMARK   28  A    between atoms: _66  and  _69
REMARK   29  A    between atoms: _69  and  _70
REMARK   30  A    between atoms: _70  and  _71
REMARK   31  A    between atoms: _73  and  _75
REMARK   32  A    between atoms: _75  and  _76
REMARK   33  A    between atoms: _75  and  _78
REMARK   34  A    between atoms: _78  and  _79
REMARK   35  A    between atoms: _84  and  _86
REMARK   36  A    between atoms: _86  and  _87
REMARK   37  A    between atoms: _86  and  _89
REMARK   38  A    between atoms: _89  and  _90
REMARK   39  A    between atoms: _95  and  _97
REMARK   40  A    between atoms: _97  and  _98
REMARK   41  A    between atoms: _97  and  _100
REMARK   42  A    between atoms: _100  and  _101
REMARK   43  A    between atoms: _101  and  _102
REMARK   44  A    between atoms: _102  and  _103
REMARK   45  A    between atoms: _112  and  _114
REMARK   46  A    between atoms: _114  and  _115
REMARK   47  A    between atoms: _114  and  _117
REMARK   48  A    between atoms: _117  and  _118
REMARK   49  A    between atoms: _120  and  _122
REMARK   50  A    between atoms: _122  and  _123
REMARK   51  A    between atoms: _122  and  _125
REMARK   52  A    between atoms: _125  and  _126
REMARK   53  A    between atoms: _131  and  _133
REMARK   54  A    between atoms: _133  and  _134
REMARK   55  A    between atoms: _133  and  _136
REMARK   56  A    between atoms: _136  and  _137
REMARK   57  A    between atoms: _137  and  _138
REMARK   58  A    between atoms: _141  and  _143
REMARK   59  A    between atoms: _143  and  _144
REMARK   60  A    between atoms: _143  and  _146
REMARK   61  A    between atoms: _146  and  _147
REMARK   62  A    between atoms: _152  and  _154
REMARK   63  A    between atoms: _154  and  _155
REMARK   64  A    between atoms: _154  and  _157
REMARK   65  A    between atoms: _157  and  _158
REMARK   66  A    between atoms: _158  and  _159
REMARK   67  A    between atoms: _161  and  _163
REMARK   68  A    between atoms: _163  and  _164
REMARK   69  A    between atoms: _163  and  _166
REMARK   70  A    between atoms: _166  and  _167
REMARK   71  A    between atoms: _172  and  _174
REMARK   72  A    between atoms: _174  and  _175
REMARK   73  A    between atoms: _174  and  _177
REMARK   74  A    between atoms: _177  and  _178
REMARK   75  A    between atoms: _178  and  _179
REMARK   76  A    between atoms: _179  and  _180
REMARK   77  A    between atoms: _180  and  MG_450
REMARK   78  A    between atoms: _182  and  _184
REMARK   79  A    between atoms: _184  and  _185
REMARK   80  A    between atoms: _184  and  _187
REMARK   81  A    between atoms: _187  and  _188
REMARK   82  A    between atoms: _188  and  _189
REMARK   83  A    between atoms: _192  and  _194
REMARK   84  A    between atoms: _194  and  _195
REMARK   85  A    between atoms: _194  and  _197
REMARK   86  A    between atoms: _197  and  _198
REMARK   87  A    between atoms: _198  and  _199
REMARK   88  A    between atoms: _201  and  _203
REMARK   89  A    between atoms: _203  and  _204
REMARK   90  A    between atoms: _203  and  _206
REMARK   91  A    between atoms: _206  and  _207
REMARK   92  A    between atoms: _212  and  _213
REMARK   93  A    between atoms: _215  and  _217
REMARK   94  A    between atoms: _217  and  _218
REMARK   95  A    between atoms: _217  and  _220
REMARK   96  A    between atoms: _220  and  _221
REMARK   97  A    between atoms: _221  and  _222
REMARK   98  A    between atoms: _222  and  _223
REMARK   99  A    between atoms: _223  and  _224
REMARK  100  A    between atoms: _228  and  _230
REMARK  101  A    between atoms: _230  and  _231
REMARK  102  A    between atoms: _230  and  _233
REMARK  103  A    between atoms: _235  and  _237
REMARK  104  A    between atoms: _237  and  _238
REMARK  105  A    between atoms: _237  and  _240
REMARK  106  A    between atoms: _240  and  _241
REMARK  107  A    between atoms: _241  and  _242
REMARK  108  A    between atoms: _245  and  _247
REMARK  109  A    between atoms: _247  and  _248
REMARK  110  A    between atoms: _247  and  _250
REMARK  111  A    between atoms: _250  and  _251
REMARK  112  A    between atoms: _256  and  _258
REMARK  113  A    between atoms: _258  and  _259
REMARK  114  A    between atoms: _262  and  _264
REMARK  115  A    between atoms: _264  and  _265
REMARK  116  A    between atoms: _264  and  _267
REMARK  117  A    between atoms: _267  and  _268
REMARK  118  A    between atoms: _268  and  _269
REMARK  119  A    between atoms: _271  and  _273
REMARK  120  A    between atoms: _273  and  _274
REMARK  121  A    between atoms: _273  and  _276
REMARK  122  A    between atoms: _276  and  _277
REMARK  123  A    between atoms: _287  and  _289
REMARK  124  A    between atoms: _289  and  _290
REMARK  125  A    between atoms: _289  and  _292
REMARK  126  A    between atoms: _292  and  _293
REMARK  127  A    between atoms: _296  and  _298
REMARK  128  A    between atoms: _298  and  _299
REMARK  129  A    between atoms: _298  and  _301
REMARK  130  A    between atoms: _301  and  _302
REMARK  131  A    between atoms: _302  and  _303
REMARK  132  A    between atoms: _308  and  _310
REMARK  133  A    between atoms: _310  and  _311
REMARK  134  A    between atoms: _310  and  _313
REMARK  135  A    between atoms: _313  and  _314
REMARK  136  A    between atoms: _317  and  _319
REMARK  137  A    between atoms: _319  and  _320
REMARK  138  A    between atoms: _319  and  _322
REMARK  139  A    between atoms: _322  and  _323
REMARK  140  A    between atoms: _323  and  _324
REMARK  141  A    between atoms: _329  and  _331
REMARK  142  A    between atoms: _331  and  _332
REMARK  143  A    between atoms: _331  and  _334
REMARK  144  A    between atoms: _334  and  _335
REMARK  145  A    between atoms: _341  and  _343
REMARK  146  A    between atoms: _343  and  _344
REMARK  147  A    between atoms: _343  and  _346
REMARK  148  A    between atoms: _348  and  _350
REMARK  149  A    between atoms: _350  and  _351
REMARK  150  A    between atoms: _350  and  _353
REMARK  151  A    between atoms: _353  and  _354
REMARK  152  A    between atoms: _354  and  _355
REMARK  153  A    between atoms: _357  and  _359
REMARK  154  A    between atoms: _359  and  _360
REMARK  155  A    between atoms: _359  and  _362
REMARK  156  A    between atoms: _362  and  _363
REMARK  157  A    between atoms: _368  and  _370
REMARK  158  A    between atoms: _370  and  _371
REMARK  159  A    between atoms: _374  and  _376
REMARK  160  A    between atoms: _376  and  _377
REMARK  161  A    between atoms: _376  and  _379
REMARK  162  A    between atoms: _382  and  _384
REMARK  163  A    between atoms: _384  and  _385
REMARK  164  A    between atoms: _384  and  _387
REMARK  165  A    between atoms: _387  and  _388
REMARK  166  A    between atoms: _391  and  _393
REMARK  167  A    between atoms: _393  and  _394
REMARK  168  A    between atoms: _393  and  _396
REMARK  169  A    between atoms: _396  and  _397
REMARK  170  A    between atoms: _399  and  _401
REMARK  171  A    between atoms: _401  and  _402
REMARK  172  A    between atoms: _401  and  _404
REMARK  173  A    between atoms: _404  and  _405
REMARK  174  A    between atoms: _415  and  _417
REMARK  175  A    between atoms: _417  and  _418
REMARK  176  A    between atoms: _417  and  _420
REMARK  177  A    between atoms: _420  and  _421
REMARK  178  A    between atoms: _423  and  _425
REMARK  179  A    between atoms: _425  and  _426
REMARK  180  A    between atoms: _425  and  _428
REMARK  181  A    between atoms: _428  and  _429
REMARK  182  A    between atoms: _429  and  _430
REMARK  183  A    between atoms: _433  and  _435
REMARK  184  A    between atoms: _435  and  _436
REMARK  185  A    between atoms: _435  and  _438
REMARK  186  A    between atoms: _438  and  _439
REMARK  187  A    between atoms: _439  and  _440
REMARK  188  A    between atoms: _440  and  _441
REMARK                            x       y       z     vdW  Elec       q    Type
REMARK                         _______ _______ _______ _____ _____    ______ ____
ROOT
ATOM      1  C   ALA A   1     -20.562 -29.389 -35.220  0.00  0.00    +0.238 C 
ATOM      2  N   VAL A   2     -21.323 -29.345 -34.152  0.00  0.00    -0.298 N 
ATOM      3  H   VAL A   2     -21.729 -28.453 -33.804  0.00  0.00    +0.150 HD
ATOM      4  O   ALA A   1     -20.125 -30.431 -35.732  0.00  0.00    -0.274 OA
ENDROOT
BRANCH   1   5
ATOM      5  CA  ALA A   1     -20.276 -28.064 -35.874  0.00  0.00    +0.145 C 
ATOM      6  CB  ALA A   1     -21.082 -26.963 -35.227  0.00  0.00    +0.028 C 
BRANCH   5   7
ATOM      7  N   ALA A   1     -20.636 -28.193 -37.267  0.00  0.00    -0.238 NA
ATOM      8  H   ALA A   1     -19.921 -27.930 -37.975  0.00  0.00    +0.142 HD
ENDBRANCH   5   7
ENDBRANCH   1   5
BRANCH   2   9
ATOM      9  CA  VAL A   2     -21.565 -30.601 -33.488  0.00  0.00    +0.137 C 
BRANCH   9  10
ATOM     10  CB  VAL A   2     -21.419 -30.574 -31.978  0.00  0.00    +0.026 C 
ATOM     11  CG2 VAL A   2     -22.116 -29.403 -31.297  0.00  0.00    +0.002 C 
ATOM     12  CG1 VAL A   2     -19.929 -30.550 -31.658  0.00  0.00    +0.002 C 
ENDBRANCH   9  10
BRANCH   9  13
ATOM     13  C   VAL A   2     -22.819 -31.301 -33.904  0.00  0.00    +0.227 C 
ATOM     14  O   VAL A   2     -23.245 -32.260 -33.254  0.00  0.00    -0.286 OA
ENDBRANCH   9  13
ENDBRANCH   2   9
TORSDOF 5
REMARK  Name = ../refined-set-2016/1px4/1px4_pocket.pdb
REMARK  188 active torsions:
REMARK  status: ('A' for Active; 'I' for Inactive)
REMARK    1  A    between atoms: _1  and  _3
REMARK    2  A    between atoms: _3  and  _4
REMARK    3  A    between atoms: _3  and  _6
REMARK    4  A    between atoms: _6  and  _7
REMARK    5  A    between atoms: _12  and  _13
REMARK    6  A    between atoms: _15  and  _17
REMARK    7  A    between atoms: _17  and  _18
REMARK    8  A    between atoms: _17  and  _20
REMARK    9  A    between atoms: _20  and  _21
REMARK   10  A    between atoms: _26  and  _28
REMARK   11  A    between atoms: _28  and  _29
REMARK   12  A    between atoms: _28  and  _31
REMARK   13  A    between atoms: _34  and  _36
REMARK   14  A    between atoms: _36  and  _37
REMARK   15  A    between atoms: _36  and  _39
REMARK   16  A    between atoms: _39  and  _40
REMARK   17  A    between atoms: _43  and  _45
REMARK   18  A    between atoms: _45  and  _46
REMARK   19  A    between atoms: _45  and  _48
REMARK   20  A    between atoms: _48  and  _49
REMARK   21  A    between atoms: _49  and  _50
REMARK   22  A    between atoms: _55  and  _57
REMARK   23  A    between atoms: _57  and  _58
REMARK   24  A    between atoms: _57  and  _60
REMARK   25  A    between atoms: _60  and  _61
REMARK   26  A    between atoms: _64  and  _66
REMARK   27  A    between atoms: _66  and  _67
REMARK   28  A    between atoms: _66  and  _69
REMARK   29  A    between atoms: _69  and  _70
REMARK   30  A    between atoms: _70  and  _71
REMARK   31  A    between atoms: _73  and  _75
REMARK   32  A    between atoms: _75  and  _76
REMARK   33  A    between atoms: _75  and  _78
REMARK   34  A    between atoms: _78  and  _79
REMARK   35  A    between atoms: _84  and  _86
REMARK   36  A    between atoms: _86  and  _87
REMARK   37  A    between atoms: _86  and  _89
REMARK   38  A    between atoms: _89  and  _90
REMARK   39  A    between atoms: _95  and  _97
REMARK   40  A    between atoms: _97  and  _98
REMARK   41  A    between atoms: _97  and  _100
REMARK   42  A    between atoms: _100  and  _101
REMARK   43  A    between atoms: _101  and  _102
REMARK   44  A    between atoms: _102  and  _103
REMARK   45  A    between atoms: _112  and  _114
REMARK   46  A    between atoms: _114  and  _115
REMARK   47  A    between atoms: _114  and  _117
REMARK   48  A    between atoms: _117  and  _118
REMARK   49  A    between atoms: _120  and  _122
REMARK   50  A    between atoms: _122  and  _123
REMARK   51  A    between atoms: _122  and  _125
REMARK   52  A    between atoms: _125  and  _126
REMARK   53  A    between atoms: _131  and  _133
REMARK   54  A    between atoms: _133  and  _134
REMARK   55  A    between atoms: _133  and  _136
REMARK   56  A    between atoms: _136  and  _137
REMARK   57  A    between atoms: _137  and  _138
REMARK   58  A    between atoms: _141  and  _143
REMARK   59  A    between atoms: _143  and  _144
REMARK   60  A    between atoms: _143  and  _146
REMARK   61  A    between atoms: _146  and  _147
REMARK   62  A    between atoms: _152  and  _154
REMARK   63  A    between atoms: _154  and  _155
REMARK   64  A    between atoms: _154  and  _157
REMARK   65  A    between atoms: _157  and  _158
REMARK   66  A    between atoms: _158  and  _159
REMARK   67  A    between atoms: _161  and  _163
REMARK   68  A    between atoms: _163  and  _164
REMARK   69  A    between atoms: _163  and  _166
REMARK   70  A    between atoms: _166  and  _167
REMARK   71  A    between atoms: _172  and  _174
REMARK   72  A    between atoms: _174  and  _175
REMARK   73  A    between atoms: _174  and  _177
REMARK   74  A    between atoms: _177  and  _178
REMARK   75  A    between atoms: _178  and  _179
REMARK   76  A    between atoms: _179  and  _180
REMARK   77  A    between atoms: _180  and  MG_450
REMARK   78  A    between atoms: _182  and  _184
REMARK   79  A    between atoms: _184  and  _185
REMARK   80  A    between atoms: _184  and  _187
REMARK   81  A    between atoms: _187  and  _188
REMARK   82  A    between atoms: _188  and  _189
REMARK   83  A    between atoms: _192  and  _194
REMARK   84  A    between atoms: _194  and  _195
REMARK   85  A    between atoms: _194  and  _197
REMARK   86  A    between atoms: _197  and  _198
REMARK   87  A    between atoms: _198  and  _199
REMARK   88  A    between atoms: _201  and  _203
REMARK   89  A    between atoms: _203  and  _204
REMARK   90  A    between atoms: _203  and  _206
REMARK   91  A    between atoms: _206  and  _207
REMARK   92  A    between atoms: _212  and  _213
REMARK   93  A    between atoms: _215  and  _217
REMARK   94  A    between atoms: _217  and  _218
REMARK   95  A    between atoms: _217  and  _220
REMARK   96  A    between atoms: _220  and  _221
REMARK   97  A    between atoms: _221  and  _222
REMARK   98  A    between atoms: _222  and  _223
REMARK   99  A    between atoms: _223  and  _224
REMARK  100  A    between atoms: _228  and  _230
REMARK  101  A    between atoms: _230  and  _231
REMARK  102  A    between atoms: _230  and  _233
REMARK  103  A    between atoms: _235  and  _237
REMARK  104  A    between atoms: _237  and  _238
REMARK  105  A    between atoms: _237  and  _240
REMARK  106  A    between atoms: _240  and  _241
REMARK  107  A    between atoms: _241  and  _242
REMARK  108  A    between atoms: _245  and  _247
REMARK  109  A    between atoms: _247  and  _248
REMARK  110  A    between atoms: _247  and  _250
REMARK  111  A    between atoms: _250  and  _251
REMARK  112  A    between atoms: _256  and  _258
REMARK  113  A    between atoms: _258  and  _259
REMARK  114  A    between atoms: _262  and  _264
REMARK  115  A    between atoms: _264  and  _265
REMARK  116  A    between atoms: _264  and  _267
REMARK  117  A    between atoms: _267  and  _268
REMARK  118  A    between atoms: _268  and  _269
REMARK  119  A    between atoms: _271  and  _273
REMARK  120  A    between atoms: _273  and  _274
REMARK  121  A    between atoms: _273  and  _276
REMARK  122  A    between atoms: _276  and  _277
REMARK  123  A    between atoms: _287  and  _289
REMARK  124  A    between atoms: _289  and  _290
REMARK  125  A    between atoms: _289  and  _292
REMARK  126  A    between atoms: _292  and  _293
REMARK  127  A    between atoms: _296  and  _298
REMARK  128  A    between atoms: _298  and  _299
REMARK  129  A    between atoms: _298  and  _301
REMARK  130  A    between atoms: _301  and  _302
REMARK  131  A    between atoms: _302  and  _303
REMARK  132  A    between atoms: _308  and  _310
REMARK  133  A    between atoms: _310  and  _311
REMARK  134  A    between atoms: _310  and  _313
REMARK  135  A    between atoms: _313  and  _314
REMARK  136  A    between atoms: _317  and  _319
REMARK  137  A    between atoms: _319  and  _320
REMARK  138  A    between atoms: _319  and  _322
REMARK  139  A    between atoms: _322  and  _323
REMARK  140  A    between atoms: _323  and  _324
REMARK  141  A    between atoms: _329  and  _331
REMARK  142  A    between atoms: _331  and  _332
REMARK  143  A    between atoms: _331  and  _334
REMARK  144  A    between atoms: _334  and  _335
REMARK  145  A    between atoms: _341  and  _343
REMARK  146  A    between atoms: _343  and  _344
REMARK  147  A    between atoms: _343  and  _346
REMARK  148  A    between atoms: _348  and  _350
REMARK  149  A    between atoms: _350  and  _351
REMARK  150  A    between atoms: _350  and  _353
REMARK  151  A    between atoms: _353  and  _354
REMARK  152  A    between atoms: _354  and  _355
REMARK  153  A    between atoms: _357  and  _359
REMARK  154  A    between atoms: _359  and  _360
REMARK  155  A    between atoms: _359  and  _362
REMARK  156  A    between atoms: _362  and  _363
REMARK  157  A    between atoms: _368  and  _370
REMARK  158  A    between atoms: _370  and  _371
REMARK  159  A    between atoms: _374  and  _376
REMARK  160  A    between atoms: _376  and  _377
REMARK  161  A    between atoms: _376  and  _379
REMARK  162  A    between atoms: _382  and  _384
REMARK  163  A    between atoms: _384  and  _385
REMARK  164  A    between atoms: _384  and  _387
REMARK  165  A    between atoms: _387  and  _388
REMARK  166  A    between atoms: _391  and  _393
REMARK  167  A    between atoms: _393  and  _394
REMARK  168  A    between atoms: _393  and  _396
REMARK  169  A    between atoms: _396  and  _397
REMARK  170  A    between atoms: _399  and  _401
REMARK  171  A    between atoms: _401  and  _402
REMARK  172  A    between atoms: _401  and  _404
REMARK  173  A    between atoms: _404  and  _405
REMARK  174  A    between atoms: _415  and  _417
REMARK  175  A    between atoms: _417  and  _418
REMARK  176  A    between atoms: _417  and  _420
REMARK  177  A    between atoms: _420  and  _421
REMARK  178  A    between atoms: _423  and  _425
REMARK  179  A    between atoms: _425  and  _426
REMARK  180  A    between atoms: _425  and  _428
REMARK  181  A    between atoms: _428  and  _429
REMARK  182  A    between atoms: _429  and  _430
REMARK  183  A    between atoms: _433  and  _435
REMARK  184  A    between atoms: _435  and  _436
REMARK  185  A    between atoms: _435  and  _438
REMARK  186  A    between atoms: _438  and  _439
REMARK  187  A    between atoms: _439  and  _440
REMARK  188  A    between atoms: _440  and  _441
REMARK                            x       y       z     vdW  Elec       q    Type
REMARK                         _______ _______ _______ _____ _____    ______ ____
ROOT
ATOM      1  CA  TRP A   3     -18.847 -26.351 -32.197  0.00  0.00    +0.153 C 
ENDROOT
BRANCH   1   3
ATOM      2  C   SER A   2     -17.197 -26.237 -33.881  0.00  0.00    +0.243 C 
ATOM      3  N   TRP A   3     -17.727 -25.672 -32.781  0.00  0.00    -0.297 N 
ATOM      4  H   TRP A   3     -17.346 -24.793 -32.377  0.00  0.00    +0.150 HD
ATOM      5  O   SER A   2     -17.635 -27.295 -34.387  0.00  0.00    -0.273 OA
BRANCH   2   6
ATOM      6  CA  SER A   2     -15.985 -25.529 -34.538  0.00  0.00    +0.178 C 
BRANCH   6   8
ATOM      7  C   ASP A   1     -15.252 -23.379 -33.742  0.00  0.00    +0.239 C 
ATOM      8  N   SER A   2     -15.307 -24.687 -33.564  0.00  0.00    -0.295 N 
ATOM      9  H   SER A   2     -14.865 -25.116 -32.726  0.00  0.00    +0.150 HD
ATOM     10  O   ASP A   1     -15.727 -22.802 -34.721  0.00  0.00    -0.274 OA
BRANCH   7  11
ATOM     11  CA  ASP A   1     -14.461 -22.581 -32.685  0.00  0.00    +0.156 C 
BRANCH  11  12
ATOM     12  N   ASP A   1     -14.289 -21.258 -33.272  0.00  0.00    -0.238 NA
ATOM     13  H   ASP A   1     -14.973 -20.935 -33.986  0.00  0.00    +0.142 HD
ENDBRANCH  11  12
BRANCH  11  14
ATOM     14  CB  ASP A   1     -15.036 -22.768 -31.271  0.00  0.00    +0.140 C 
BRANCH  14  15
ATOM     15  CG  ASP A   1     -16.476 -22.345 -31.303  0.00  0.00    +0.367 C 
ATOM     16  OD2 ASP A   1     -16.623 -21.276 -30.594  0.00  0.00    -0.246 OA
ATOM     17  OD1 ASP A   1     -17.406 -22.930 -31.866  0.00  0.00    -0.246 OA
ENDBRANCH  14  15
ENDBRANCH  11  14
ENDBRANCH   7  11
ENDBRANCH   6   8
BRANCH   6  18
ATOM     18  CB  SER A   2     -15.012 -26.566 -35.174  0.00  0.00    +0.166 C 
BRANCH  18  19
ATOM     19  OG  SER A   2     -13.901 -25.957 -35.838  0.00  0.00    -0.380 OA
ATOM     20  H   SER A   2     -14.233 -25.371 -36.564  0.00  0.00    +0.211 HD
ENDBRANCH  18  19
ENDBRANCH   6  18
ENDBRANCH   2   6
ENDBRANCH   1   3
BRANCH   1  21
ATOM     21  C   TRP A   3     -19.989 -25.404 -31.943  0.00  0.00    +0.241 C 
ATOM     22  O   TRP A   3     -20.935 -25.786 -31.254  0.00  0.00    -0.273 OA
ATOM     23  N   SER A   4     -19.920 -24.204 -32.525  0.00  0.00    -0.296 N 
ATOM     24  H   SER A   4     -19.068 -23.991 -33.082  0.00  0.00    +0.150 HD
BRANCH  23  25
ATOM     25  CA  SER A   4     -20.961 -23.152 -32.440  0.00  0.00    +0.166 C 
BRANCH  25  26
ATOM     26  C   SER A   4     -20.841 -22.282 -33.638  0.00  0.00    +0.229 C 
ATOM     27  O   SER A   4     -19.853 -22.346 -34.329  0.00  0.00    -0.286 OA
ENDBRANCH  25  26
BRANCH  25  28
ATOM     28  CB  SER A   4     -20.801 -22.241 -31.231  0.00  0.00    +0.165 C 
BRANCH  28  29
ATOM     29  OG  SER A   4     -19.571 -21.534 -31.259  0.00  0.00    -0.380 OA
ATOM     30  H   SER A   4     -18.821 -22.180 -31.262  0.00  0.00    +0.211 HD
ENDBRANCH  28  29
ENDBRANCH  25  28
ENDBRANCH  23  25
ENDBRANCH   1  21
BRANCH   1  31
ATOM     31  CB  TRP A   3     -18.510 -27.082 -30.903  0.00  0.00    +0.057 C 
BRANCH  31  32
ATOM     32  CG  TRP A   3     -17.555 -26.337 -30.025  0.00  0.00    -0.002 A 
ATOM     33  CD1 TRP A   3     -17.881 -25.554 -28.966  0.00  0.00    +0.068 A 
ATOM     34  NE1 TRP A   3     -16.756 -25.040 -28.372  0.00  0.00    -0.352 N 
ATOM     35  HE1 TRP A   3     -16.733 -24.430 -27.530  0.00  0.00    +0.166 HD
ATOM     36  CE2 TRP A   3     -15.669 -25.472 -29.082  0.00  0.00    +0.056 A 
ATOM     37  CZ2 TRP A   3     -14.312 -25.164 -28.931  0.00  0.00    +0.017 A 
ATOM     38  CH2 TRP A   3     -13.419 -25.747 -29.808  0.00  0.00    +0.001 A 
ATOM     39  CZ3 TRP A   3     -13.873 -26.586 -30.856  0.00  0.00    +0.000 A 
ATOM     40  CE3 TRP A   3     -15.233 -26.829 -31.028  0.00  0.00    +0.001 A 
ATOM     41  CD2 TRP A   3     -16.146 -26.295 -30.131  0.00  0.00    +0.013 A 
ENDBRANCH  31  32
ENDBRANCH   1  31
TORSDOF 16
REMARK  Name = ../refined-set-2016/1px4/1px4_pocket.pdb
REMARK  188 active torsions:
REMARK  status: ('A' for Active; 'I' for Inactive)
REMARK    1  A    between atoms: _1  and  _3
REMARK    2  A    between atoms: _3  and  _4
REMARK    3  A    between atoms: _3  and  _6
REMARK    4  A    between atoms: _6  and  _7
REMARK    5  A    between atoms: _12  and  _13
REMARK    6  A    between atoms: _15  and  _17
REMARK    7  A    between atoms: _17  and  _18
REMARK    8  A    between atoms: _17  and  _20
REMARK    9  A    between atoms: _20  and  _21
REMARK   10  A    between atoms: _26  and  _28
REMARK   11  A    between atoms: _28  and  _29
REMARK   12  A    between atoms: _28  and  _31
REMARK   13  A    between atoms: _34  and  _36
REMARK   14  A    between atoms: _36  and  _37
REMARK   15  A    between atoms: _36  and  _39
REMARK   16  A    between atoms: _39  and  _40
REMARK   17  A    between atoms: _43  and  _45
REMARK   18  A    between atoms: _45  and  _46
REMARK   19  A    between atoms: _45  and  _48
REMARK   20  A    between atoms: _48  and  _49
REMARK   21  A    between atoms: _49  and  _50
REMARK   22  A    between atoms: _55  and  _57
REMARK   23  A    between atoms: _57  and  _58
REMARK   24  A    between atoms: _57  and  _60
REMARK   25  A    between atoms: _60  and  _61
REMARK   26  A    between atoms: _64  and  _66
REMARK   27  A    between atoms: _66  and  _67
REMARK   28  A    between atoms: _66  and  _69
REMARK   29  A    between atoms: _69  and  _70
REMARK   30  A    between atoms: _70  and  _71
REMARK   31  A    between atoms: _73  and  _75
REMARK   32  A    between atoms: _75  and  _76
REMARK   33  A    between atoms: _75  and  _78
REMARK   34  A    between atoms: _78  and  _79
REMARK   35  A    between atoms: _84  and  _86
REMARK   36  A    between atoms: _86  and  _87
REMARK   37  A    between atoms: _86  and  _89
REMARK   38  A    between atoms: _89  and  _90
REMARK   39  A    between atoms: _95  and  _97
REMARK   40  A    between atoms: _97  and  _98
REMARK   41  A    between atoms: _97  and  _100
REMARK   42  A    between atoms: _100  and  _101
REMARK   43  A    between atoms: _101  and  _102
REMARK   44  A    between atoms: _102  and  _103
REMARK   45  A    between atoms: _112  and  _114
REMARK   46  A    between atoms: _114  and  _115
REMARK   47  A    between atoms: _114  and  _117
REMARK   48  A    between atoms: _117  and  _118
REMARK   49  A    between atoms: _120  and  _122
REMARK   50  A    between atoms: _122  and  _123
REMARK   51  A    between atoms: _122  and  _125
REMARK   52  A    between atoms: _125  and  _126
REMARK   53  A    between atoms: _131  and  _133
REMARK   54  A    between atoms: _133  and  _134
REMARK   55  A    between atoms: _133  and  _136
REMARK   56  A    between atoms: _136  and  _137
REMARK   57  A    between atoms: _137  and  _138
REMARK   58  A    between atoms: _141  and  _143
REMARK   59  A    between atoms: _143  and  _144
REMARK   60  A    between atoms: _143  and  _146
REMARK   61  A    between atoms: _146  and  _147
REMARK   62  A    between atoms: _152  and  _154
REMARK   63  A    between atoms: _154  and  _155
REMARK   64  A    between atoms: _154  and  _157
REMARK   65  A    between atoms: _157  and  _158
REMARK   66  A    between atoms: _158  and  _159
REMARK   67  A    between atoms: _161  and  _163
REMARK   68  A    between atoms: _163  and  _164
REMARK   69  A    between atoms: _163  and  _166
REMARK   70  A    between atoms: _166  and  _167
REMARK   71  A    between atoms: _172  and  _174
REMARK   72  A    between atoms: _174  and  _175
REMARK   73  A    between atoms: _174  and  _177
REMARK   74  A    between atoms: _177  and  _178
REMARK   75  A    between atoms: _178  and  _179
REMARK   76  A    between atoms: _179  and  _180
REMARK   77  A    between atoms: _180  and  MG_450
REMARK   78  A    between atoms: _182  and  _184
REMARK   79  A    between atoms: _184  and  _185
REMARK   80  A    between atoms: _184  and  _187
REMARK   81  A    between atoms: _187  and  _188
REMARK   82  A    between atoms: _188  and  _189
REMARK   83  A    between atoms: _192  and  _194
REMARK   84  A    between atoms: _194  and  _195
REMARK   85  A    between atoms: _194  and  _197
REMARK   86  A    between atoms: _197  and  _198
REMARK   87  A    between atoms: _198  and  _199
REMARK   88  A    between atoms: _201  and  _203
REMARK   89  A    between atoms: _203  and  _204
REMARK   90  A    between atoms: _203  and  _206
REMARK   91  A    between atoms: _206  and  _207
REMARK   92  A    between atoms: _212  and  _213
REMARK   93  A    between atoms: _215  and  _217
REMARK   94  A    between atoms: _217  and  _218
REMARK   95  A    between atoms: _217  and  _220
REMARK   96  A    between atoms: _220  and  _221
REMARK   97  A    between atoms: _221  and  _222
REMARK   98  A    between atoms: _222  and  _223
REMARK   99  A    between atoms: _223  and  _224
REMARK  100  A    between atoms: _228  and  _230
REMARK  101  A    between atoms: _230  and  _231
REMARK  102  A    between atoms: _230  and  _233
REMARK  103  A    between atoms: _235  and  _237
REMARK  104  A    between atoms: _237  and  _238
REMARK  105  A    between atoms: _237  and  _240
REMARK  106  A    between atoms: _240  and  _241
REMARK  107  A    between atoms: _241  and  _242
REMARK  108  A    between atoms: _245  and  _247
REMARK  109  A    between atoms: _247  and  _248
REMARK  110  A    between atoms: _247  and  _250
REMARK  111  A    between atoms: _250  and  _251
REMARK  112  A    between atoms: _256  and  _258
REMARK  113  A    between atoms: _258  and  _259
REMARK  114  A    between atoms: _262  and  _264
REMARK  115  A    between atoms: _264  and  _265
REMARK  116  A    between atoms: _264  and  _267
REMARK  117  A    between atoms: _267  and  _268
REMARK  118  A    between atoms: _268  and  _269
REMARK  119  A    between atoms: _271  and  _273
REMARK  120  A    between atoms: _273  and  _274
REMARK  121  A    between atoms: _273  and  _276
REMARK  122  A    between atoms: _276  and  _277
REMARK  123  A    between atoms: _287  and  _289
REMARK  124  A    between atoms: _289  and  _290
REMARK  125  A    between atoms: _289  and  _292
REMARK  126  A    between atoms: _292  and  _293
REMARK  127  A    between atoms: _296  and  _298
REMARK  128  A    between atoms: _298  and  _299
REMARK  129  A    between atoms: _298  and  _301
REMARK  130  A    between atoms: _301  and  _302
REMARK  131  A    between atoms: _302  and  _303
REMARK  132  A    between atoms: _308  and  _310
REMARK  133  A    between atoms: _310  and  _311
REMARK  134  A    between atoms: _310  and  _313
REMARK  135  A    between atoms: _313  and  _314
REMARK  136  A    between atoms: _317  and  _319
REMARK  137  A    between atoms: _319  and  _320
REMARK  138  A    between atoms: _319  and  _322
REMARK  139  A    between atoms: _322  and  _323
REMARK  140  A    between atoms: _323  and  _324
REMARK  141  A    between atoms: _329  and  _331
REMARK  142  A    between atoms: _331  and  _332
REMARK  143  A    between atoms: _331  and  _334
REMARK  144  A    between atoms: _334  and  _335
REMARK  145  A    between atoms: _341  and  _343
REMARK  146  A    between atoms: _343  and  _344
REMARK  147  A    between atoms: _343  and  _346
REMARK  148  A    between atoms: _348  and  _350
REMARK  149  A    between atoms: _350  and  _351
REMARK  150  A    between atoms: _350  and  _353
REMARK  151  A    between atoms: _353  and  _354
REMARK  152  A    between atoms: _354  and  _355
REMARK  153  A    between atoms: _357  and  _359
REMARK  154  A    between atoms: _359  and  _360
REMARK  155  A    between atoms: _359  and  _362
REMARK  156  A    between atoms: _362  and  _363
REMARK  157  A    between atoms: _368  and  _370
REMARK  158  A    between atoms: _370  and  _371
REMARK  159  A    between atoms: _374  and  _376
REMARK  160  A    between atoms: _376  and  _377
REMARK  161  A    between atoms: _376  and  _379
REMARK  162  A    between atoms: _382  and  _384
REMARK  163  A    between atoms: _384  and  _385
REMARK  164  A    between atoms: _384  and  _387
REMARK  165  A    between atoms: _387  and  _388
REMARK  166  A    between atoms: _391  and  _393
REMARK  167  A    between atoms: _393  and  _394
REMARK  168  A    between atoms: _393  and  _396
REMARK  169  A    between atoms: _396  and  _397
REMARK  170  A    between atoms: _399  and  _401
REMARK  171  A    between atoms: _401  and  _402
REMARK  172  A    between atoms: _401  and  _404
REMARK  173  A    between atoms: _404  and  _405
REMARK  174  A    between atoms: _415  and  _417
REMARK  175  A    between atoms: _417  and  _418
REMARK  176  A    between atoms: _417  and  _420
REMARK  177  A    between atoms: _420  and  _421
REMARK  178  A    between atoms: _423  and  _425
REMARK  179  A    between atoms: _425  and  _426
REMARK  180  A    between atoms: _425  and  _428
REMARK  181  A    between atoms: _428  and  _429
REMARK  182  A    between atoms: _429  and  _430
REMARK  183  A    between atoms: _433  and  _435
REMARK  184  A    between atoms: _435  and  _436
REMARK  185  A    between atoms: _435  and  _438
REMARK  186  A    between atoms: _438  and  _439
REMARK  187  A    between atoms: _439  and  _440
REMARK  188  A    between atoms: _440  and  _441
REMARK                            x       y       z     vdW  Elec       q    Type
REMARK                         _______ _______ _______ _____ _____    ______ ____
ROOT
ATOM      1  CA  ARG A   2     -19.682 -29.708 -17.527  0.00  0.00    +0.137 C 
ENDROOT
BRANCH   1   3
ATOM      2  C   GLU A   1     -19.195 -27.559 -18.620  0.00  0.00    +0.238 C 
ATOM      3  N   ARG A   2     -18.958 -28.420 -17.597  0.00  0.00    -0.298 N 
ATOM      4  H   ARG A   2     -18.266 -28.173 -16.861  0.00  0.00    +0.150 HD
ATOM      5  O   GLU A   1     -20.010 -27.756 -19.557  0.00  0.00    -0.274 OA
BRANCH   2   6
ATOM      6  CA  GLU A   1     -18.406 -26.284 -18.653  0.00  0.00    +0.145 C 
BRANCH   6   7
ATOM      7  N   GLU A   1     -17.834 -25.874 -17.381  0.00  0.00    -0.238 NA
ATOM      8  H   GLU A   1     -16.805 -25.745 -17.306  0.00  0.00    +0.142 HD
ENDBRANCH   6   7
BRANCH   6   9
ATOM      9  CB  GLU A   1     -17.307 -26.455 -19.740  0.00  0.00    +0.038 C 
BRANCH   9  10
ATOM     10  CG  GLU A   1     -16.555 -25.159 -20.142  0.00  0.00    +0.116 C 
BRANCH  10  11
ATOM     11  CD  GLU A   1     -15.462 -24.760 -19.207  0.00  0.00    +0.365 C 
ATOM     12  OE2 GLU A   1     -15.355 -25.331 -18.109  0.00  0.00    -0.246 OA
ATOM     13  OE1 GLU A   1     -14.784 -23.678 -19.636  0.00  0.00    -0.246 OA
ENDBRANCH  10  11
ENDBRANCH   9  10
ENDBRANCH   6   9
ENDBRANCH   2   6
ENDBRANCH   1   3
BRANCH   1  14
ATOM     14  C   ARG A   2     -20.890 -29.668 -16.601  0.00  0.00    +0.227 C 
ATOM     15  O   ARG A   2     -21.530 -30.684 -16.348  0.00  0.00    -0.286 OA
ENDBRANCH   1  14
BRANCH   1  16
ATOM     16  CB  ARG A   2     -18.740 -30.863 -17.125  0.00  0.00    +0.031 C 
BRANCH  16  17
ATOM     17  CG  ARG A   2     -17.629 -31.101 -18.131  0.00  0.00    +0.045 C 
BRANCH  17  18
ATOM     18  CD  ARG A   2     -18.150 -31.828 -19.362  0.00  0.00    +0.174 C 
BRANCH  18  19
ATOM     19  NE  ARG A   2     -18.321 -33.240 -19.047  0.00  0.00    -0.265 N 
ATOM     20  HE  ARG A   2     -17.901 -33.612 -18.171  0.00  0.00    +0.259 HD
ATOM     21  CZ  ARG A   2     -18.994 -34.070 -19.838  0.00  0.00    +0.342 C 
ATOM     22  NH2 ARG A   2     -18.990 -35.378 -19.521  0.00  0.00    -0.292 N 
ATOM     23 HH21 ARG A   2     -18.472 -35.708 -18.682  0.00  0.00    +0.255 HD
ATOM     24 HH22 ARG A   2     -19.505 -36.059 -20.115  0.00  0.00    +0.255 HD
ATOM     25  NH1 ARG A   2     -19.581 -33.637 -20.973  0.00  0.00    -0.292 N 
ATOM     26 HH11 ARG A   2     -19.512 -32.635 -21.245  0.00  0.00    +0.255 HD
ATOM     27 HH12 ARG A   2     -20.102 -34.305 -21.576  0.00  0.00    +0.255 HD
ENDBRANCH  18  19
ENDBRANCH  17  18
ENDBRANCH  16  17
ENDBRANCH   1  16
TORSDOF 11
REMARK  Name = ../refined-set-2016/1px4/1px4_pocket.pdb
REMARK  188 active torsions:
REMARK  status: ('A' for Active; 'I' for Inactive)
REMARK    1  A    between atoms: _1  and  _3
REMARK    2  A    between atoms: _3  and  _4
REMARK    3  A    between atoms: _3  and  _6
REMARK    4  A    between atoms: _6  and  _7
REMARK    5  A    between atoms: _12  and  _13
REMARK    6  A    between atoms: _15  and  _17
REMARK    7  A    between atoms: _17  and  _18
REMARK    8  A    between atoms: _17  and  _20
REMARK    9  A    between atoms: _20  and  _21
REMARK   10  A    between atoms: _26  and  _28
REMARK   11  A    between atoms: _28  and  _29
REMARK   12  A    between atoms: _28  and  _31
REMARK   13  A    between atoms: _34  and  _36
REMARK   14  A    between atoms: _36  and  _37
REMARK   15  A    between atoms: _36  and  _39
REMARK   16  A    between atoms: _39  and  _40
REMARK   17  A    between atoms: _43  and  _45
REMARK   18  A    between atoms: _45  and  _46
REMARK   19  A    between atoms: _45  and  _48
REMARK   20  A    between atoms: _48  and  _49
REMARK   21  A    between atoms: _49  and  _50
REMARK   22  A    between atoms: _55  and  _57
REMARK   23  A    between atoms: _57  and  _58
REMARK   24  A    between atoms: _57  and  _60
REMARK   25  A    between atoms: _60  and  _61
REMARK   26  A    between atoms: _64  and  _66
REMARK   27  A    between atoms: _66  and  _67
REMARK   28  A    between atoms: _66  and  _69
REMARK   29  A    between atoms: _69  and  _70
REMARK   30  A    between atoms: _70  and  _71
REMARK   31  A    between atoms: _73  and  _75
REMARK   32  A    between atoms: _75  and  _76
REMARK   33  A    between atoms: _75  and  _78
REMARK   34  A    between atoms: _78  and  _79
REMARK   35  A    between atoms: _84  and  _86
REMARK   36  A    between atoms: _86  and  _87
REMARK   37  A    between atoms: _86  and  _89
REMARK   38  A    between atoms: _89  and  _90
REMARK   39  A    between atoms: _95  and  _97
REMARK   40  A    between atoms: _97  and  _98
REMARK   41  A    between atoms: _97  and  _100
REMARK   42  A    between atoms: _100  and  _101
REMARK   43  A    between atoms: _101  and  _102
REMARK   44  A    between atoms: _102  and  _103
REMARK   45  A    between atoms: _112  and  _114
REMARK   46  A    between atoms: _114  and  _115
REMARK   47  A    between atoms: _114  and  _117
REMARK   48  A    between atoms: _117  and  _118
REMARK   49  A    between atoms: _120  and  _122
REMARK   50  A    between atoms: _122  and  _123
REMARK   51  A    between atoms: _122  and  _125
REMARK   52  A    between atoms: _125  and  _126
REMARK   53  A    between atoms: _131  and  _133
REMARK   54  A    between atoms: _133  and  _134
REMARK   55  A    between atoms: _133  and  _136
REMARK   56  A    between atoms: _136  and  _137
REMARK   57  A    between atoms: _137  and  _138
REMARK   58  A    between atoms: _141  and  _143
REMARK   59  A    between atoms: _143  and  _144
REMARK   60  A    between atoms: _143  and  _146
REMARK   61  A    between atoms: _146  and  _147
REMARK   62  A    between atoms: _152  and  _154
REMARK   63  A    between atoms: _154  and  _155
REMARK   64  A    between atoms: _154  and  _157
REMARK   65  A    between atoms: _157  and  _158
REMARK   66  A    between atoms: _158  and  _159
REMARK   67  A    between atoms: _161  and  _163
REMARK   68  A    between atoms: _163  and  _164
REMARK   69  A    between atoms: _163  and  _166
REMARK   70  A    between atoms: _166  and  _167
REMARK   71  A    between atoms: _172  and  _174
REMARK   72  A    between atoms: _174  and  _175
REMARK   73  A    between atoms: _174  and  _177
REMARK   74  A    between atoms: _177  and  _178
REMARK   75  A    between atoms: _178  and  _179
REMARK   76  A    between atoms: _179  and  _180
REMARK   77  A    between atoms: _180  and  MG_450
REMARK   78  A    between atoms: _182  and  _184
REMARK   79  A    between atoms: _184  and  _185
REMARK   80  A    between atoms: _184  and  _187
REMARK   81  A    between atoms: _187  and  _188
REMARK   82  A    between atoms: _188  and  _189
REMARK   83  A    between atoms: _192  and  _194
REMARK   84  A    between atoms: _194  and  _195
REMARK   85  A    between atoms: _194  and  _197
REMARK   86  A    between atoms: _197  and  _198
REMARK   87  A    between atoms: _198  and  _199
REMARK   88  A    between atoms: _201  and  _203
REMARK   89  A    between atoms: _203  and  _204
REMARK   90  A    between atoms: _203  and  _206
REMARK   91  A    between atoms: _206  and  _207
REMARK   92  A    between atoms: _212  and  _213
REMARK   93  A    between atoms: _215  and  _217
REMARK   94  A    between atoms: _217  and  _218
REMARK   95  A    between atoms: _217  and  _220
REMARK   96  A    between atoms: _220  and  _221
REMARK   97  A    between atoms: _221  and  _222
REMARK   98  A    between atoms: _222  and  _223
REMARK   99  A    between atoms: _223  and  _224
REMARK  100  A    between atoms: _228  and  _230
REMARK  101  A    between atoms: _230  and  _231
REMARK  102  A    between atoms: _230  and  _233
REMARK  103  A    between atoms: _235  and  _237
REMARK  104  A    between atoms: _237  and  _238
REMARK  105  A    between atoms: _237  and  _240
REMARK  106  A    between atoms: _240  and  _241
REMARK  107  A    between atoms: _241  and  _242
REMARK  108  A    between atoms: _245  and  _247
REMARK  109  A    between atoms: _247  and  _248
REMARK  110  A    between atoms: _247  and  _250
REMARK  111  A    between atoms: _250  and  _251
REMARK  112  A    between atoms: _256  and  _258
REMARK  113  A    between atoms: _258  and  _259
REMARK  114  A    between atoms: _262  and  _264
REMARK  115  A    between atoms: _264  and  _265
REMARK  116  A    between atoms: _264  and  _267
REMARK  117  A    between atoms: _267  and  _268
REMARK  118  A    between atoms: _268  and  _269
REMARK  119  A    between atoms: _271  and  _273
REMARK  120  A    between atoms: _273  and  _274
REMARK  121  A    between atoms: _273  and  _276
REMARK  122  A    between atoms: _276  and  _277
REMARK  123  A    between atoms: _287  and  _289
REMARK  124  A    between atoms: _289  and  _290
REMARK  125  A    between atoms: _289  and  _292
REMARK  126  A    between atoms: _292  and  _293
REMARK  127  A    between atoms: _296  and  _298
REMARK  128  A    between atoms: _298  and  _299
REMARK  129  A    between atoms: _298  and  _301
REMARK  130  A    between atoms: _301  and  _302
REMARK  131  A    between atoms: _302  and  _303
REMARK  132  A    between atoms: _308  and  _310
REMARK  133  A    between atoms: _310  and  _311
REMARK  134  A    between atoms: _310  and  _313
REMARK  135  A    between atoms: _313  and  _314
REMARK  136  A    between atoms: _317  and  _319
REMARK  137  A    between atoms: _319  and  _320
REMARK  138  A    between atoms: _319  and  _322
REMARK  139  A    between atoms: _322  and  _323
REMARK  140  A    between atoms: _323  and  _324
REMARK  141  A    between atoms: _329  and  _331
REMARK  142  A    between atoms: _331  and  _332
REMARK  143  A    between atoms: _331  and  _334
REMARK  144  A    between atoms: _334  and  _335
REMARK  145  A    between atoms: _341  and  _343
REMARK  146  A    between atoms: _343  and  _344
REMARK  147  A    between atoms: _343  and  _346
REMARK  148  A    between atoms: _348  and  _350
REMARK  149  A    between atoms: _350  and  _351
REMARK  150  A    between atoms: _350  and  _353
REMARK  151  A    between atoms: _353  and  _354
REMARK  152  A    between atoms: _354  and  _355
REMARK  153  A    between atoms: _357  and  _359
REMARK  154  A    between atoms: _359  and  _360
REMARK  155  A    between atoms: _359  and  _362
REMARK  156  A    between atoms: _362  and  _363
REMARK  157  A    between atoms: _368  and  _370
REMARK  158  A    between atoms: _370  and  _371
REMARK  159  A    between atoms: _374  and  _376
REMARK  160  A    between atoms: _376  and  _377
REMARK  161  A    between atoms: _376  and  _379
REMARK  162  A    between atoms: _382  and  _384
REMARK  163  A    between atoms: _384  and  _385
REMARK  164  A    between atoms: _384  and  _387
REMARK  165  A    between atoms: _387  and  _388
REMARK  166  A    between atoms: _391  and  _393
REMARK  167  A    between atoms: _393  and  _394
REMARK  168  A    between atoms: _393  and  _396
REMARK  169  A    between atoms: _396  and  _397
REMARK  170  A    between atoms: _399  and  _401
REMARK  171  A    between atoms: _401  and  _402
REMARK  172  A    between atoms: _401  and  _404
REMARK  173  A    between atoms: _404  and  _405
REMARK  174  A    between atoms: _415  and  _417
REMARK  175  A    between atoms: _417  and  _418
REMARK  176  A    between atoms: _417  and  _420
REMARK  177  A    between atoms: _420  and  _421
REMARK  178  A    between atoms: _423  and  _425
REMARK  179  A    between atoms: _425  and  _426
REMARK  180  A    between atoms: _425  and  _428
REMARK  181  A    between atoms: _428  and  _429
REMARK  182  A    between atoms: _429  and  _430
REMARK  183  A    between atoms: _433  and  _435
REMARK  184  A    between atoms: _435  and  _436
REMARK  185  A    between atoms: _435  and  _438
REMARK  186  A    between atoms: _438  and  _439
REMARK  187  A    between atoms: _439  and  _440
REMARK  188  A    between atoms: _440  and  _441
REMARK                            x       y       z     vdW  Elec       q    Type
REMARK                         _______ _______ _______ _____ _____    ______ ____
ROOT
ATOM      1  O   HOH     1      -7.886 -30.553 -26.551  0.00  0.00    +0.000 OA
ENDROOT
TORSDOF 0
REMARK  Name = ../refined-set-2016/1px4/1px4_pocket.pdb
REMARK  188 active torsions:
REMARK  status: ('A' for Active; 'I' for Inactive)
REMARK    1  A    between atoms: _1  and  _3
REMARK    2  A    between atoms: _3  and  _4
REMARK    3  A    between atoms: _3  and  _6
REMARK    4  A    between atoms: _6  and  _7
REMARK    5  A    between atoms: _12  and  _13
REMARK    6  A    between atoms: _15  and  _17
REMARK    7  A    between atoms: _17  and  _18
REMARK    8  A    between atoms: _17  and  _20
REMARK    9  A    between atoms: _20  and  _21
REMARK   10  A    between atoms: _26  and  _28
REMARK   11  A    between atoms: _28  and  _29
REMARK   12  A    between atoms: _28  and  _31
REMARK   13  A    between atoms: _34  and  _36
REMARK   14  A    between atoms: _36  and  _37
REMARK   15  A    between atoms: _36  and  _39
REMARK   16  A    between atoms: _39  and  _40
REMARK   17  A    between atoms: _43  and  _45
REMARK   18  A    between atoms: _45  and  _46
REMARK   19  A    between atoms: _45  and  _48
REMARK   20  A    between atoms: _48  and  _49
REMARK   21  A    between atoms: _49  and  _50
REMARK   22  A    between atoms: _55  and  _57
REMARK   23  A    between atoms: _57  and  _58
REMARK   24  A    between atoms: _57  and  _60
REMARK   25  A    between atoms: _60  and  _61
REMARK   26  A    between atoms: _64  and  _66
REMARK   27  A    between atoms: _66  and  _67
REMARK   28  A    between atoms: _66  and  _69
REMARK   29  A    between atoms: _69  and  _70
REMARK   30  A    between atoms: _70  and  _71
REMARK   31  A    between atoms: _73  and  _75
REMARK   32  A    between atoms: _75  and  _76
REMARK   33  A    between atoms: _75  and  _78
REMARK   34  A    between atoms: _78  and  _79
REMARK   35  A    between atoms: _84  and  _86
REMARK   36  A    between atoms: _86  and  _87
REMARK   37  A    between atoms: _86  and  _89
REMARK   38  A    between atoms: _89  and  _90
REMARK   39  A    between atoms: _95  and  _97
REMARK   40  A    between atoms: _97  and  _98
REMARK   41  A    between atoms: _97  and  _100
REMARK   42  A    between atoms: _100  and  _101
REMARK   43  A    between atoms: _101  and  _102
REMARK   44  A    between atoms: _102  and  _103
REMARK   45  A    between atoms: _112  and  _114
REMARK   46  A    between atoms: _114  and  _115
REMARK   47  A    between atoms: _114  and  _117
REMARK   48  A    between atoms: _117  and  _118
REMARK   49  A    between atoms: _120  and  _122
REMARK   50  A    between atoms: _122  and  _123
REMARK   51  A    between atoms: _122  and  _125
REMARK   52  A    between atoms: _125  and  _126
REMARK   53  A    between atoms: _131  and  _133
REMARK   54  A    between atoms: _133  and  _134
REMARK   55  A    between atoms: _133  and  _136
REMARK   56  A    between atoms: _136  and  _137
REMARK   57  A    between atoms: _137  and  _138
REMARK   58  A    between atoms: _141  and  _143
REMARK   59  A    between atoms: _143  and  _144
REMARK   60  A    between atoms: _143  and  _146
REMARK   61  A    between atoms: _146  and  _147
REMARK   62  A    between atoms: _152  and  _154
REMARK   63  A    between atoms: _154  and  _155
REMARK   64  A    between atoms: _154  and  _157
REMARK   65  A    between atoms: _157  and  _158
REMARK   66  A    between atoms: _158  and  _159
REMARK   67  A    between atoms: _161  and  _163
REMARK   68  A    between atoms: _163  and  _164
REMARK   69  A    between atoms: _163  and  _166
REMARK   70  A    between atoms: _166  and  _167
REMARK   71  A    between atoms: _172  and  _174
REMARK   72  A    between atoms: _174  and  _175
REMARK   73  A    between atoms: _174  and  _177
REMARK   74  A    between atoms: _177  and  _178
REMARK   75  A    between atoms: _178  and  _179
REMARK   76  A    between atoms: _179  and  _180
REMARK   77  A    between atoms: _180  and  MG_450
REMARK   78  A    between atoms: _182  and  _184
REMARK   79  A    between atoms: _184  and  _185
REMARK   80  A    between atoms: _184  and  _187
REMARK   81  A    between atoms: _187  and  _188
REMARK   82  A    between atoms: _188  and  _189
REMARK   83  A    between atoms: _192  and  _194
REMARK   84  A    between atoms: _194  and  _195
REMARK   85  A    between atoms: _194  and  _197
REMARK   86  A    between atoms: _197  and  _198
REMARK   87  A    between atoms: _198  and  _199
REMARK   88  A    between atoms: _201  and  _203
REMARK   89  A    between atoms: _203  and  _204
REMARK   90  A    between atoms: _203  and  _206
REMARK   91  A    between atoms: _206  and  _207
REMARK   92  A    between atoms: _212  and  _213
REMARK   93  A    between atoms: _215  and  _217
REMARK   94  A    between atoms: _217  and  _218
REMARK   95  A    between atoms: _217  and  _220
REMARK   96  A    between atoms: _220  and  _221
REMARK   97  A    between atoms: _221  and  _222
REMARK   98  A    between atoms: _222  and  _223
REMARK   99  A    between atoms: _223  and  _224
REMARK  100  A    between atoms: _228  and  _230
REMARK  101  A    between atoms: _230  and  _231
REMARK  102  A    between atoms: _230  and  _233
REMARK  103  A    between atoms: _235  and  _237
REMARK  104  A    between atoms: _237  and  _238
REMARK  105  A    between atoms: _237  and  _240
REMARK  106  A    between atoms: _240  and  _241
REMARK  107  A    between atoms: _241  and  _242
REMARK  108  A    between atoms: _245  and  _247
REMARK  109  A    between atoms: _247  and  _248
REMARK  110  A    between atoms: _247  and  _250
REMARK  111  A    between atoms: _250  and  _251
REMARK  112  A    between atoms: _256  and  _258
REMARK  113  A    between atoms: _258  and  _259
REMARK  114  A    between atoms: _262  and  _264
REMARK  115  A    between atoms: _264  and  _265
REMARK  116  A    between atoms: _264  and  _267
REMARK  117  A    between atoms: _267  and  _268
REMARK  118  A    between atoms: _268  and  _269
REMARK  119  A    between atoms: _271  and  _273
REMARK  120  A    between atoms: _273  and  _274
REMARK  121  A    between atoms: _273  and  _276
REMARK  122  A    between atoms: _276  and  _277
REMARK  123  A    between atoms: _287  and  _289
REMARK  124  A    between atoms: _289  and  _290
REMARK  125  A    between atoms: _289  and  _292
REMARK  126  A    between atoms: _292  and  _293
REMARK  127  A    between atoms: _296  and  _298
REMARK  128  A    between atoms: _298  and  _299
REMARK  129  A    between atoms: _298  and  _301
REMARK  130  A    between atoms: _301  and  _302
REMARK  131  A    between atoms: _302  and  _303
REMARK  132  A    between atoms: _308  and  _310
REMARK  133  A    between atoms: _310  and  _311
REMARK  134  A    between atoms: _310  and  _313
REMARK  135  A    between atoms: _313  and  _314
REMARK  136  A    between atoms: _317  and  _319
REMARK  137  A    between atoms: _319  and  _320
REMARK  138  A    between atoms: _319  and  _322
REMARK  139  A    between atoms: _322  and  _323
REMARK  140  A    between atoms: _323  and  _324
REMARK  141  A    between atoms: _329  and  _331
REMARK  142  A    between atoms: _331  and  _332
REMARK  143  A    between atoms: _331  and  _334
REMARK  144  A    between atoms: _334  and  _335
REMARK  145  A    between atoms: _341  and  _343
REMARK  146  A    between atoms: _343  and  _344
REMARK  147  A    between atoms: _343  and  _346
REMARK  148  A    between atoms: _348  and  _350
REMARK  149  A    between atoms: _350  and  _351
REMARK  150  A    between atoms: _350  and  _353
REMARK  151  A    between atoms: _353  and  _354
REMARK  152  A    between atoms: _354  and  _355
REMARK  153  A    between atoms: _357  and  _359
REMARK  154  A    between atoms: _359  and  _360
REMARK  155  A    between atoms: _359  and  _362
REMARK  156  A    between atoms: _362  and  _363
REMARK  157  A    between atoms: _368  and  _370
REMARK  158  A    between atoms: _370  and  _371
REMARK  159  A    between atoms: _374  and  _376
REMARK  160  A    between atoms: _376  and  _377
REMARK  161  A    between atoms: _376  and  _379
REMARK  162  A    between atoms: _382  and  _384
REMARK  163  A    between atoms: _384  and  _385
REMARK  164  A    between atoms: _384  and  _387
REMARK  165  A    between atoms: _387  and  _388
REMARK  166  A    between atoms: _391  and  _393
REMARK  167  A    between atoms: _393  and  _394
REMARK  168  A    between atoms: _393  and  _396
REMARK  169  A    between atoms: _396  and  _397
REMARK  170  A    between atoms: _399  and  _401
REMARK  171  A    between atoms: _401  and  _402
REMARK  172  A    between atoms: _401  and  _404
REMARK  173  A    between atoms: _404  and  _405
REMARK  174  A    between atoms: _415  and  _417
REMARK  175  A    between atoms: _417  and  _418
REMARK  176  A    between atoms: _417  and  _420
REMARK  177  A    between atoms: _420  and  _421
REMARK  178  A    between atoms: _423  and  _425
REMARK  179  A    between atoms: _425  and  _426
REMARK  180  A    between atoms: _425  and  _428
REMARK  181  A    between atoms: _428  and  _429
REMARK  182  A    between atoms: _429  and  _430
REMARK  183  A    between atoms: _433  and  _435
REMARK  184  A    between atoms: _435  and  _436
REMARK  185  A    between atoms: _435  and  _438
REMARK  186  A    between atoms: _438  and  _439
REMARK  187  A    between atoms: _439  and  _440
REMARK  188  A    between atoms: _440  and  _441
REMARK                            x       y       z     vdW  Elec       q    Type
REMARK                         _______ _______ _______ _____ _____    ______ ____
ROOT
ATOM      1  O   HOH     1      -8.703 -32.421 -24.629  0.00  0.00    +0.000 OA
ENDROOT
TORSDOF 0
REMARK  Name = ../refined-set-2016/1px4/1px4_pocket.pdb
REMARK  188 active torsions:
REMARK  status: ('A' for Active; 'I' for Inactive)
REMARK    1  A    between atoms: _1  and  _3
REMARK    2  A    between atoms: _3  and  _4
REMARK    3  A    between atoms: _3  and  _6
REMARK    4  A    between atoms: _6  and  _7
REMARK    5  A    between atoms: _12  and  _13
REMARK    6  A    between atoms: _15  and  _17
REMARK    7  A    between atoms: _17  and  _18
REMARK    8  A    between atoms: _17  and  _20
REMARK    9  A    between atoms: _20  and  _21
REMARK   10  A    between atoms: _26  and  _28
REMARK   11  A    between atoms: _28  and  _29
REMARK   12  A    between atoms: _28  and  _31
REMARK   13  A    between atoms: _34  and  _36
REMARK   14  A    between atoms: _36  and  _37
REMARK   15  A    between atoms: _36  and  _39
REMARK   16  A    between atoms: _39  and  _40
REMARK   17  A    between atoms: _43  and  _45
REMARK   18  A    between atoms: _45  and  _46
REMARK   19  A    between atoms: _45  and  _48
REMARK   20  A    between atoms: _48  and  _49
REMARK   21  A    between atoms: _49  and  _50
REMARK   22  A    between atoms: _55  and  _57
REMARK   23  A    between atoms: _57  and  _58
REMARK   24  A    between atoms: _57  and  _60
REMARK   25  A    between atoms: _60  and  _61
REMARK   26  A    between atoms: _64  and  _66
REMARK   27  A    between atoms: _66  and  _67
REMARK   28  A    between atoms: _66  and  _69
REMARK   29  A    between atoms: _69  and  _70
REMARK   30  A    between atoms: _70  and  _71
REMARK   31  A    between atoms: _73  and  _75
REMARK   32  A    between atoms: _75  and  _76
REMARK   33  A    between atoms: _75  and  _78
REMARK   34  A    between atoms: _78  and  _79
REMARK   35  A    between atoms: _84  and  _86
REMARK   36  A    between atoms: _86  and  _87
REMARK   37  A    between atoms: _86  and  _89
REMARK   38  A    between atoms: _89  and  _90
REMARK   39  A    between atoms: _95  and  _97
REMARK   40  A    between atoms: _97  and  _98
REMARK   41  A    between atoms: _97  and  _100
REMARK   42  A    between atoms: _100  and  _101
REMARK   43  A    between atoms: _101  and  _102
REMARK   44  A    between atoms: _102  and  _103
REMARK   45  A    between atoms: _112  and  _114
REMARK   46  A    between atoms: _114  and  _115
REMARK   47  A    between atoms: _114  and  _117
REMARK   48  A    between atoms: _117  and  _118
REMARK   49  A    between atoms: _120  and  _122
REMARK   50  A    between atoms: _122  and  _123
REMARK   51  A    between atoms: _122  and  _125
REMARK   52  A    between atoms: _125  and  _126
REMARK   53  A    between atoms: _131  and  _133
REMARK   54  A    between atoms: _133  and  _134
REMARK   55  A    between atoms: _133  and  _136
REMARK   56  A    between atoms: _136  and  _137
REMARK   57  A    between atoms: _137  and  _138
REMARK   58  A    between atoms: _141  and  _143
REMARK   59  A    between atoms: _143  and  _144
REMARK   60  A    between atoms: _143  and  _146
REMARK   61  A    between atoms: _146  and  _147
REMARK   62  A    between atoms: _152  and  _154
REMARK   63  A    between atoms: _154  and  _155
REMARK   64  A    between atoms: _154  and  _157
REMARK   65  A    between atoms: _157  and  _158
REMARK   66  A    between atoms: _158  and  _159
REMARK   67  A    between atoms: _161  and  _163
REMARK   68  A    between atoms: _163  and  _164
REMARK   69  A    between atoms: _163  and  _166
REMARK   70  A    between atoms: _166  and  _167
REMARK   71  A    between atoms: _172  and  _174
REMARK   72  A    between atoms: _174  and  _175
REMARK   73  A    between atoms: _174  and  _177
REMARK   74  A    between atoms: _177  and  _178
REMARK   75  A    between atoms: _178  and  _179
REMARK   76  A    between atoms: _179  and  _180
REMARK   77  A    between atoms: _180  and  MG_450
REMARK   78  A    between atoms: _182  and  _184
REMARK   79  A    between atoms: _184  and  _185
REMARK   80  A    between atoms: _184  and  _187
REMARK   81  A    between atoms: _187  and  _188
REMARK   82  A    between atoms: _188  and  _189
REMARK   83  A    between atoms: _192  and  _194
REMARK   84  A    between atoms: _194  and  _195
REMARK   85  A    between atoms: _194  and  _197
REMARK   86  A    between atoms: _197  and  _198
REMARK   87  A    between atoms: _198  and  _199
REMARK   88  A    between atoms: _201  and  _203
REMARK   89  A    between atoms: _203  and  _204
REMARK   90  A    between atoms: _203  and  _206
REMARK   91  A    between atoms: _206  and  _207
REMARK   92  A    between atoms: _212  and  _213
REMARK   93  A    between atoms: _215  and  _217
REMARK   94  A    between atoms: _217  and  _218
REMARK   95  A    between atoms: _217  and  _220
REMARK   96  A    between atoms: _220  and  _221
REMARK   97  A    between atoms: _221  and  _222
REMARK   98  A    between atoms: _222  and  _223
REMARK   99  A    between atoms: _223  and  _224
REMARK  100  A    between atoms: _228  and  _230
REMARK  101  A    between atoms: _230  and  _231
REMARK  102  A    between atoms: _230  and  _233
REMARK  103  A    between atoms: _235  and  _237
REMARK  104  A    between atoms: _237  and  _238
REMARK  105  A    between atoms: _237  and  _240
REMARK  106  A    between atoms: _240  and  _241
REMARK  107  A    between atoms: _241  and  _242
REMARK  108  A    between atoms: _245  and  _247
REMARK  109  A    between atoms: _247  and  _248
REMARK  110  A    between atoms: _247  and  _250
REMARK  111  A    between atoms: _250  and  _251
REMARK  112  A    between atoms: _256  and  _258
REMARK  113  A    between atoms: _258  and  _259
REMARK  114  A    between atoms: _262  and  _264
REMARK  115  A    between atoms: _264  and  _265
REMARK  116  A    between atoms: _264  and  _267
REMARK  117  A    between atoms: _267  and  _268
REMARK  118  A    between atoms: _268  and  _269
REMARK  119  A    between atoms: _271  and  _273
REMARK  120  A    between atoms: _273  and  _274
REMARK  121  A    between atoms: _273  and  _276
REMARK  122  A    between atoms: _276  and  _277
REMARK  123  A    between atoms: _287  and  _289
REMARK  124  A    between atoms: _289  and  _290
REMARK  125  A    between atoms: _289  and  _292
REMARK  126  A    between atoms: _292  and  _293
REMARK  127  A    between atoms: _296  and  _298
REMARK  128  A    between atoms: _298  and  _299
REMARK  129  A    between atoms: _298  and  _301
REMARK  130  A    between atoms: _301  and  _302
REMARK  131  A    between atoms: _302  and  _303
REMARK  132  A    between atoms: _308  and  _310
REMARK  133  A    between atoms: _310  and  _311
REMARK  134  A    between atoms: _310  and  _313
REMARK  135  A    between atoms: _313  and  _314
REMARK  136  A    between atoms: _317  and  _319
REMARK  137  A    between atoms: _319  and  _320
REMARK  138  A    between atoms: _319  and  _322
REMARK  139  A    between atoms: _322  and  _323
REMARK  140  A    between atoms: _323  and  _324
REMARK  141  A    between atoms: _329  and  _331
REMARK  142  A    between atoms: _331  and  _332
REMARK  143  A    between atoms: _331  and  _334
REMARK  144  A    between atoms: _334  and  _335
REMARK  145  A    between atoms: _341  and  _343
REMARK  146  A    between atoms: _343  and  _344
REMARK  147  A    between atoms: _343  and  _346
REMARK  148  A    between atoms: _348  and  _350
REMARK  149  A    between atoms: _350  and  _351
REMARK  150  A    between atoms: _350  and  _353
REMARK  151  A    between atoms: _353  and  _354
REMARK  152  A    between atoms: _354  and  _355
REMARK  153  A    between atoms: _357  and  _359
REMARK  154  A    between atoms: _359  and  _360
REMARK  155  A    between atoms: _359  and  _362
REMARK  156  A    between atoms: _362  and  _363
REMARK  157  A    between atoms: _368  and  _370
REMARK  158  A    between atoms: _370  and  _371
REMARK  159  A    between atoms: _374  and  _376
REMARK  160  A    between atoms: _376  and  _377
REMARK  161  A    between atoms: _376  and  _379
REMARK  162  A    between atoms: _382  and  _384
REMARK  163  A    between atoms: _384  and  _385
REMARK  164  A    between atoms: _384  and  _387
REMARK  165  A    between atoms: _387  and  _388
REMARK  166  A    between atoms: _391  and  _393
REMARK  167  A    between atoms: _393  and  _394
REMARK  168  A    between atoms: _393  and  _396
REMARK  169  A    between atoms: _396  and  _397
REMARK  170  A    between atoms: _399  and  _401
REMARK  171  A    between atoms: _401  and  _402
REMARK  172  A    between atoms: _401  and  _404
REMARK  173  A    between atoms: _404  and  _405
REMARK  174  A    between atoms: _415  and  _417
REMARK  175  A    between atoms: _417  and  _418
REMARK  176  A    between atoms: _417  and  _420
REMARK  177  A    between atoms: _420  and  _421
REMARK  178  A    between atoms: _423  and  _425
REMARK  179  A    between atoms: _425  and  _426
REMARK  180  A    between atoms: _425  and  _428
REMARK  181  A    between atoms: _428  and  _429
REMARK  182  A    between atoms: _429  and  _430
REMARK  183  A    between atoms: _433  and  _435
REMARK  184  A    between atoms: _435  and  _436
REMARK  185  A    between atoms: _435  and  _438
REMARK  186  A    between atoms: _438  and  _439
REMARK  187  A    between atoms: _439  and  _440
REMARK  188  A    between atoms: _440  and  _441
REMARK                            x       y       z     vdW  Elec       q    Type
REMARK                         _______ _______ _______ _____ _____    ______ ____
ROOT
ATOM      1  O   HOH     1      -6.516 -32.955 -27.287  0.00  0.00    +0.000 OA
ENDROOT
TORSDOF 0
REMARK  Name = ../refined-set-2016/1px4/1px4_pocket.pdb
REMARK  188 active torsions:
REMARK  status: ('A' for Active; 'I' for Inactive)
REMARK    1  A    between atoms: _1  and  _3
REMARK    2  A    between atoms: _3  and  _4
REMARK    3  A    between atoms: _3  and  _6
REMARK    4  A    between atoms: _6  and  _7
REMARK    5  A    between atoms: _12  and  _13
REMARK    6  A    between atoms: _15  and  _17
REMARK    7  A    between atoms: _17  and  _18
REMARK    8  A    between atoms: _17  and  _20
REMARK    9  A    between atoms: _20  and  _21
REMARK   10  A    between atoms: _26  and  _28
REMARK   11  A    between atoms: _28  and  _29
REMARK   12  A    between atoms: _28  and  _31
REMARK   13  A    between atoms: _34  and  _36
REMARK   14  A    between atoms: _36  and  _37
REMARK   15  A    between atoms: _36  and  _39
REMARK   16  A    between atoms: _39  and  _40
REMARK   17  A    between atoms: _43  and  _45
REMARK   18  A    between atoms: _45  and  _46
REMARK   19  A    between atoms: _45  and  _48
REMARK   20  A    between atoms: _48  and  _49
REMARK   21  A    between atoms: _49  and  _50
REMARK   22  A    between atoms: _55  and  _57
REMARK   23  A    between atoms: _57  and  _58
REMARK   24  A    between atoms: _57  and  _60
REMARK   25  A    between atoms: _60  and  _61
REMARK   26  A    between atoms: _64  and  _66
REMARK   27  A    between atoms: _66  and  _67
REMARK   28  A    between atoms: _66  and  _69
REMARK   29  A    between atoms: _69  and  _70
REMARK   30  A    between atoms: _70  and  _71
REMARK   31  A    between atoms: _73  and  _75
REMARK   32  A    between atoms: _75  and  _76
REMARK   33  A    between atoms: _75  and  _78
REMARK   34  A    between atoms: _78  and  _79
REMARK   35  A    between atoms: _84  and  _86
REMARK   36  A    between atoms: _86  and  _87
REMARK   37  A    between atoms: _86  and  _89
REMARK   38  A    between atoms: _89  and  _90
REMARK   39  A    between atoms: _95  and  _97
REMARK   40  A    between atoms: _97  and  _98
REMARK   41  A    between atoms: _97  and  _100
REMARK   42  A    between atoms: _100  and  _101
REMARK   43  A    between atoms: _101  and  _102
REMARK   44  A    between atoms: _102  and  _103
REMARK   45  A    between atoms: _112  and  _114
REMARK   46  A    between atoms: _114  and  _115
REMARK   47  A    between atoms: _114  and  _117
REMARK   48  A    between atoms: _117  and  _118
REMARK   49  A    between atoms: _120  and  _122
REMARK   50  A    between atoms: _122  and  _123
REMARK   51  A    between atoms: _122  and  _125
REMARK   52  A    between atoms: _125  and  _126
REMARK   53  A    between atoms: _131  and  _133
REMARK   54  A    between atoms: _133  and  _134
REMARK   55  A    between atoms: _133  and  _136
REMARK   56  A    between atoms: _136  and  _137
REMARK   57  A    between atoms: _137  and  _138
REMARK   58  A    between atoms: _141  and  _143
REMARK   59  A    between atoms: _143  and  _144
REMARK   60  A    between atoms: _143  and  _146
REMARK   61  A    between atoms: _146  and  _147
REMARK   62  A    between atoms: _152  and  _154
REMARK   63  A    between atoms: _154  and  _155
REMARK   64  A    between atoms: _154  and  _157
REMARK   65  A    between atoms: _157  and  _158
REMARK   66  A    between atoms: _158  and  _159
REMARK   67  A    between atoms: _161  and  _163
REMARK   68  A    between atoms: _163  and  _164
REMARK   69  A    between atoms: _163  and  _166
REMARK   70  A    between atoms: _166  and  _167
REMARK   71  A    between atoms: _172  and  _174
REMARK   72  A    between atoms: _174  and  _175
REMARK   73  A    between atoms: _174  and  _177
REMARK   74  A    between atoms: _177  and  _178
REMARK   75  A    between atoms: _178  and  _179
REMARK   76  A    between atoms: _179  and  _180
REMARK   77  A    between atoms: _180  and  MG_450
REMARK   78  A    between atoms: _182  and  _184
REMARK   79  A    between atoms: _184  and  _185
REMARK   80  A    between atoms: _184  and  _187
REMARK   81  A    between atoms: _187  and  _188
REMARK   82  A    between atoms: _188  and  _189
REMARK   83  A    between atoms: _192  and  _194
REMARK   84  A    between atoms: _194  and  _195
REMARK   85  A    between atoms: _194  and  _197
REMARK   86  A    between atoms: _197  and  _198
REMARK   87  A    between atoms: _198  and  _199
REMARK   88  A    between atoms: _201  and  _203
REMARK   89  A    between atoms: _203  and  _204
REMARK   90  A    between atoms: _203  and  _206
REMARK   91  A    between atoms: _206  and  _207
REMARK   92  A    between atoms: _212  and  _213
REMARK   93  A    between atoms: _215  and  _217
REMARK   94  A    between atoms: _217  and  _218
REMARK   95  A    between atoms: _217  and  _220
REMARK   96  A    between atoms: _220  and  _221
REMARK   97  A    between atoms: _221  and  _222
REMARK   98  A    between atoms: _222  and  _223
REMARK   99  A    between atoms: _223  and  _224
REMARK  100  A    between atoms: _228  and  _230
REMARK  101  A    between atoms: _230  and  _231
REMARK  102  A    between atoms: _230  and  _233
REMARK  103  A    between atoms: _235  and  _237
REMARK  104  A    between atoms: _237  and  _238
REMARK  105  A    between atoms: _237  and  _240
REMARK  106  A    between atoms: _240  and  _241
REMARK  107  A    between atoms: _241  and  _242
REMARK  108  A    between atoms: _245  and  _247
REMARK  109  A    between atoms: _247  and  _248
REMARK  110  A    between atoms: _247  and  _250
REMARK  111  A    between atoms: _250  and  _251
REMARK  112  A    between atoms: _256  and  _258
REMARK  113  A    between atoms: _258  and  _259
REMARK  114  A    between atoms: _262  and  _264
REMARK  115  A    between atoms: _264  and  _265
REMARK  116  A    between atoms: _264  and  _267
REMARK  117  A    between atoms: _267  and  _268
REMARK  118  A    between atoms: _268  and  _269
REMARK  119  A    between atoms: _271  and  _273
REMARK  120  A    between atoms: _273  and  _274
REMARK  121  A    between atoms: _273  and  _276
REMARK  122  A    between atoms: _276  and  _277
REMARK  123  A    between atoms: _287  and  _289
REMARK  124  A    between atoms: _289  and  _290
REMARK  125  A    between atoms: _289  and  _292
REMARK  126  A    between atoms: _292  and  _293
REMARK  127  A    between atoms: _296  and  _298
REMARK  128  A    between atoms: _298  and  _299
REMARK  129  A    between atoms: _298  and  _301
REMARK  130  A    between atoms: _301  and  _302
REMARK  131  A    between atoms: _302  and  _303
REMARK  132  A    between atoms: _308  and  _310
REMARK  133  A    between atoms: _310  and  _311
REMARK  134  A    between atoms: _310  and  _313
REMARK  135  A    between atoms: _313  and  _314
REMARK  136  A    between atoms: _317  and  _319
REMARK  137  A    between atoms: _319  and  _320
REMARK  138  A    between atoms: _319  and  _322
REMARK  139  A    between atoms: _322  and  _323
REMARK  140  A    between atoms: _323  and  _324
REMARK  141  A    between atoms: _329  and  _331
REMARK  142  A    between atoms: _331  and  _332
REMARK  143  A    between atoms: _331  and  _334
REMARK  144  A    between atoms: _334  and  _335
REMARK  145  A    between atoms: _341  and  _343
REMARK  146  A    between atoms: _343  and  _344
REMARK  147  A    between atoms: _343  and  _346
REMARK  148  A    between atoms: _348  and  _350
REMARK  149  A    between atoms: _350  and  _351
REMARK  150  A    between atoms: _350  and  _353
REMARK  151  A    between atoms: _353  and  _354
REMARK  152  A    between atoms: _354  and  _355
REMARK  153  A    between atoms: _357  and  _359
REMARK  154  A    between atoms: _359  and  _360
REMARK  155  A    between atoms: _359  and  _362
REMARK  156  A    between atoms: _362  and  _363
REMARK  157  A    between atoms: _368  and  _370
REMARK  158  A    between atoms: _370  and  _371
REMARK  159  A    between atoms: _374  and  _376
REMARK  160  A    between atoms: _376  and  _377
REMARK  161  A    between atoms: _376  and  _379
REMARK  162  A    between atoms: _382  and  _384
REMARK  163  A    between atoms: _384  and  _385
REMARK  164  A    between atoms: _384  and  _387
REMARK  165  A    between atoms: _387  and  _388
REMARK  166  A    between atoms: _391  and  _393
REMARK  167  A    between atoms: _393  and  _394
REMARK  168  A    between atoms: _393  and  _396
REMARK  169  A    between atoms: _396  and  _397
REMARK  170  A    between atoms: _399  and  _401
REMARK  171  A    between atoms: _401  and  _402
REMARK  172  A    between atoms: _401  and  _404
REMARK  173  A    between atoms: _404  and  _405
REMARK  174  A    between atoms: _415  and  _417
REMARK  175  A    between atoms: _417  and  _418
REMARK  176  A    between atoms: _417  and  _420
REMARK  177  A    between atoms: _420  and  _421
REMARK  178  A    between atoms: _423  and  _425
REMARK  179  A    between atoms: _425  and  _426
REMARK  180  A    between atoms: _425  and  _428
REMARK  181  A    between atoms: _428  and  _429
REMARK  182  A    between atoms: _429  and  _430
REMARK  183  A    between atoms: _433  and  _435
REMARK  184  A    between atoms: _435  and  _436
REMARK  185  A    between atoms: _435  and  _438
REMARK  186  A    between atoms: _438  and  _439
REMARK  187  A    between atoms: _439  and  _440
REMARK  188  A    between atoms: _440  and  _441
REMARK                            x       y       z     vdW  Elec       q    Type
REMARK                         _______ _______ _______ _____ _____    ______ ____
ROOT
ATOM      1  O   HOH     1      -5.640 -32.312 -35.192  0.00  0.00    +0.000 OA
ENDROOT
TORSDOF 0
REMARK  Name = ../refined-set-2016/1px4/1px4_pocket.pdb
REMARK  188 active torsions:
REMARK  status: ('A' for Active; 'I' for Inactive)
REMARK    1  A    between atoms: _1  and  _3
REMARK    2  A    between atoms: _3  and  _4
REMARK    3  A    between atoms: _3  and  _6
REMARK    4  A    between atoms: _6  and  _7
REMARK    5  A    between atoms: _12  and  _13
REMARK    6  A    between atoms: _15  and  _17
REMARK    7  A    between atoms: _17  and  _18
REMARK    8  A    between atoms: _17  and  _20
REMARK    9  A    between atoms: _20  and  _21
REMARK   10  A    between atoms: _26  and  _28
REMARK   11  A    between atoms: _28  and  _29
REMARK   12  A    between atoms: _28  and  _31
REMARK   13  A    between atoms: _34  and  _36
REMARK   14  A    between atoms: _36  and  _37
REMARK   15  A    between atoms: _36  and  _39
REMARK   16  A    between atoms: _39  and  _40
REMARK   17  A    between atoms: _43  and  _45
REMARK   18  A    between atoms: _45  and  _46
REMARK   19  A    between atoms: _45  and  _48
REMARK   20  A    between atoms: _48  and  _49
REMARK   21  A    between atoms: _49  and  _50
REMARK   22  A    between atoms: _55  and  _57
REMARK   23  A    between atoms: _57  and  _58
REMARK   24  A    between atoms: _57  and  _60
REMARK   25  A    between atoms: _60  and  _61
REMARK   26  A    between atoms: _64  and  _66
REMARK   27  A    between atoms: _66  and  _67
REMARK   28  A    between atoms: _66  and  _69
REMARK   29  A    between atoms: _69  and  _70
REMARK   30  A    between atoms: _70  and  _71
REMARK   31  A    between atoms: _73  and  _75
REMARK   32  A    between atoms: _75  and  _76
REMARK   33  A    between atoms: _75  and  _78
REMARK   34  A    between atoms: _78  and  _79
REMARK   35  A    between atoms: _84  and  _86
REMARK   36  A    between atoms: _86  and  _87
REMARK   37  A    between atoms: _86  and  _89
REMARK   38  A    between atoms: _89  and  _90
REMARK   39  A    between atoms: _95  and  _97
REMARK   40  A    between atoms: _97  and  _98
REMARK   41  A    between atoms: _97  and  _100
REMARK   42  A    between atoms: _100  and  _101
REMARK   43  A    between atoms: _101  and  _102
REMARK   44  A    between atoms: _102  and  _103
REMARK   45  A    between atoms: _112  and  _114
REMARK   46  A    between atoms: _114  and  _115
REMARK   47  A    between atoms: _114  and  _117
REMARK   48  A    between atoms: _117  and  _118
REMARK   49  A    between atoms: _120  and  _122
REMARK   50  A    between atoms: _122  and  _123
REMARK   51  A    between atoms: _122  and  _125
REMARK   52  A    between atoms: _125  and  _126
REMARK   53  A    between atoms: _131  and  _133
REMARK   54  A    between atoms: _133  and  _134
REMARK   55  A    between atoms: _133  and  _136
REMARK   56  A    between atoms: _136  and  _137
REMARK   57  A    between atoms: _137  and  _138
REMARK   58  A    between atoms: _141  and  _143
REMARK   59  A    between atoms: _143  and  _144
REMARK   60  A    between atoms: _143  and  _146
REMARK   61  A    between atoms: _146  and  _147
REMARK   62  A    between atoms: _152  and  _154
REMARK   63  A    between atoms: _154  and  _155
REMARK   64  A    between atoms: _154  and  _157
REMARK   65  A    between atoms: _157  and  _158
REMARK   66  A    between atoms: _158  and  _159
REMARK   67  A    between atoms: _161  and  _163
REMARK   68  A    between atoms: _163  and  _164
REMARK   69  A    between atoms: _163  and  _166
REMARK   70  A    between atoms: _166  and  _167
REMARK   71  A    between atoms: _172  and  _174
REMARK   72  A    between atoms: _174  and  _175
REMARK   73  A    between atoms: _174  and  _177
REMARK   74  A    between atoms: _177  and  _178
REMARK   75  A    between atoms: _178  and  _179
REMARK   76  A    between atoms: _179  and  _180
REMARK   77  A    between atoms: _180  and  MG_450
REMARK   78  A    between atoms: _182  and  _184
REMARK   79  A    between atoms: _184  and  _185
REMARK   80  A    between atoms: _184  and  _187
REMARK   81  A    between atoms: _187  and  _188
REMARK   82  A    between atoms: _188  and  _189
REMARK   83  A    between atoms: _192  and  _194
REMARK   84  A    between atoms: _194  and  _195
REMARK   85  A    between atoms: _194  and  _197
REMARK   86  A    between atoms: _197  and  _198
REMARK   87  A    between atoms: _198  and  _199
REMARK   88  A    between atoms: _201  and  _203
REMARK   89  A    between atoms: _203  and  _204
REMARK   90  A    between atoms: _203  and  _206
REMARK   91  A    between atoms: _206  and  _207
REMARK   92  A    between atoms: _212  and  _213
REMARK   93  A    between atoms: _215  and  _217
REMARK   94  A    between atoms: _217  and  _218
REMARK   95  A    between atoms: _217  and  _220
REMARK   96  A    between atoms: _220  and  _221
REMARK   97  A    between atoms: _221  and  _222
REMARK   98  A    between atoms: _222  and  _223
REMARK   99  A    between atoms: _223  and  _224
REMARK  100  A    between atoms: _228  and  _230
REMARK  101  A    between atoms: _230  and  _231
REMARK  102  A    between atoms: _230  and  _233
REMARK  103  A    between atoms: _235  and  _237
REMARK  104  A    between atoms: _237  and  _238
REMARK  105  A    between atoms: _237  and  _240
REMARK  106  A    between atoms: _240  and  _241
REMARK  107  A    between atoms: _241  and  _242
REMARK  108  A    between atoms: _245  and  _247
REMARK  109  A    between atoms: _247  and  _248
REMARK  110  A    between atoms: _247  and  _250
REMARK  111  A    between atoms: _250  and  _251
REMARK  112  A    between atoms: _256  and  _258
REMARK  113  A    between atoms: _258  and  _259
REMARK  114  A    between atoms: _262  and  _264
REMARK  115  A    between atoms: _264  and  _265
REMARK  116  A    between atoms: _264  and  _267
REMARK  117  A    between atoms: _267  and  _268
REMARK  118  A    between atoms: _268  and  _269
REMARK  119  A    between atoms: _271  and  _273
REMARK  120  A    between atoms: _273  and  _274
REMARK  121  A    between atoms: _273  and  _276
REMARK  122  A    between atoms: _276  and  _277
REMARK  123  A    between atoms: _287  and  _289
REMARK  124  A    between atoms: _289  and  _290
REMARK  125  A    between atoms: _289  and  _292
REMARK  126  A    between atoms: _292  and  _293
REMARK  127  A    between atoms: _296  and  _298
REMARK  128  A    between atoms: _298  and  _299
REMARK  129  A    between atoms: _298  and  _301
REMARK  130  A    between atoms: _301  and  _302
REMARK  131  A    between atoms: _302  and  _303
REMARK  132  A    between atoms: _308  and  _310
REMARK  133  A    between atoms: _310  and  _311
REMARK  134  A    between atoms: _310  and  _313
REMARK  135  A    between atoms: _313  and  _314
REMARK  136  A    between atoms: _317  and  _319
REMARK  137  A    between atoms: _319  and  _320
REMARK  138  A    between atoms: _319  and  _322
REMARK  139  A    between atoms: _322  and  _323
REMARK  140  A    between atoms: _323  and  _324
REMARK  141  A    between atoms: _329  and  _331
REMARK  142  A    between atoms: _331  and  _332
REMARK  143  A    between atoms: _331  and  _334
REMARK  144  A    between atoms: _334  and  _335
REMARK  145  A    between atoms: _341  and  _343
REMARK  146  A    between atoms: _343  and  _344
REMARK  147  A    between atoms: _343  and  _346
REMARK  148  A    between atoms: _348  and  _350
REMARK  149  A    between atoms: _350  and  _351
REMARK  150  A    between atoms: _350  and  _353
REMARK  151  A    between atoms: _353  and  _354
REMARK  152  A    between atoms: _354  and  _355
REMARK  153  A    between atoms: _357  and  _359
REMARK  154  A    between atoms: _359  and  _360
REMARK  155  A    between atoms: _359  and  _362
REMARK  156  A    between atoms: _362  and  _363
REMARK  157  A    between atoms: _368  and  _370
REMARK  158  A    between atoms: _370  and  _371
REMARK  159  A    between atoms: _374  and  _376
REMARK  160  A    between atoms: _376  and  _377
REMARK  161  A    between atoms: _376  and  _379
REMARK  162  A    between atoms: _382  and  _384
REMARK  163  A    between atoms: _384  and  _385
REMARK  164  A    between atoms: _384  and  _387
REMARK  165  A    between atoms: _387  and  _388
REMARK  166  A    between atoms: _391  and  _393
REMARK  167  A    between atoms: _393  and  _394
REMARK  168  A    between atoms: _393  and  _396
REMARK  169  A    between atoms: _396  and  _397
REMARK  170  A    between atoms: _399  and  _401
REMARK  171  A    between atoms: _401  and  _402
REMARK  172  A    between atoms: _401  and  _404
REMARK  173  A    between atoms: _404  and  _405
REMARK  174  A    between atoms: _415  and  _417
REMARK  175  A    between atoms: _417  and  _418
REMARK  176  A    between atoms: _417  and  _420
REMARK  177  A    between atoms: _420  and  _421
REMARK  178  A    between atoms: _423  and  _425
REMARK  179  A    between atoms: _425  and  _426
REMARK  180  A    between atoms: _425  and  _428
REMARK  181  A    between atoms: _428  and  _429
REMARK  182  A    between atoms: _429  and  _430
REMARK  183  A    between atoms: _433  and  _435
REMARK  184  A    between atoms: _435  and  _436
REMARK  185  A    between atoms: _435  and  _438
REMARK  186  A    between atoms: _438  and  _439
REMARK  187  A    between atoms: _439  and  _440
REMARK  188  A    between atoms: _440  and  _441
REMARK                            x       y       z     vdW  Elec       q    Type
REMARK                         _______ _______ _______ _____ _____    ______ ____
ROOT
ATOM      1  O   HOH     1     -11.477 -26.260 -19.279  0.00  0.00    +0.000 OA
ENDROOT
TORSDOF 0
REMARK  Name = ../refined-set-2016/1px4/1px4_pocket.pdb
REMARK  188 active torsions:
REMARK  status: ('A' for Active; 'I' for Inactive)
REMARK    1  A    between atoms: _1  and  _3
REMARK    2  A    between atoms: _3  and  _4
REMARK    3  A    between atoms: _3  and  _6
REMARK    4  A    between atoms: _6  and  _7
REMARK    5  A    between atoms: _12  and  _13
REMARK    6  A    between atoms: _15  and  _17
REMARK    7  A    between atoms: _17  and  _18
REMARK    8  A    between atoms: _17  and  _20
REMARK    9  A    between atoms: _20  and  _21
REMARK   10  A    between atoms: _26  and  _28
REMARK   11  A    between atoms: _28  and  _29
REMARK   12  A    between atoms: _28  and  _31
REMARK   13  A    between atoms: _34  and  _36
REMARK   14  A    between atoms: _36  and  _37
REMARK   15  A    between atoms: _36  and  _39
REMARK   16  A    between atoms: _39  and  _40
REMARK   17  A    between atoms: _43  and  _45
REMARK   18  A    between atoms: _45  and  _46
REMARK   19  A    between atoms: _45  and  _48
REMARK   20  A    between atoms: _48  and  _49
REMARK   21  A    between atoms: _49  and  _50
REMARK   22  A    between atoms: _55  and  _57
REMARK   23  A    between atoms: _57  and  _58
REMARK   24  A    between atoms: _57  and  _60
REMARK   25  A    between atoms: _60  and  _61
REMARK   26  A    between atoms: _64  and  _66
REMARK   27  A    between atoms: _66  and  _67
REMARK   28  A    between atoms: _66  and  _69
REMARK   29  A    between atoms: _69  and  _70
REMARK   30  A    between atoms: _70  and  _71
REMARK   31  A    between atoms: _73  and  _75
REMARK   32  A    between atoms: _75  and  _76
REMARK   33  A    between atoms: _75  and  _78
REMARK   34  A    between atoms: _78  and  _79
REMARK   35  A    between atoms: _84  and  _86
REMARK   36  A    between atoms: _86  and  _87
REMARK   37  A    between atoms: _86  and  _89
REMARK   38  A    between atoms: _89  and  _90
REMARK   39  A    between atoms: _95  and  _97
REMARK   40  A    between atoms: _97  and  _98
REMARK   41  A    between atoms: _97  and  _100
REMARK   42  A    between atoms: _100  and  _101
REMARK   43  A    between atoms: _101  and  _102
REMARK   44  A    between atoms: _102  and  _103
REMARK   45  A    between atoms: _112  and  _114
REMARK   46  A    between atoms: _114  and  _115
REMARK   47  A    between atoms: _114  and  _117
REMARK   48  A    between atoms: _117  and  _118
REMARK   49  A    between atoms: _120  and  _122
REMARK   50  A    between atoms: _122  and  _123
REMARK   51  A    between atoms: _122  and  _125
REMARK   52  A    between atoms: _125  and  _126
REMARK   53  A    between atoms: _131  and  _133
REMARK   54  A    between atoms: _133  and  _134
REMARK   55  A    between atoms: _133  and  _136
REMARK   56  A    between atoms: _136  and  _137
REMARK   57  A    between atoms: _137  and  _138
REMARK   58  A    between atoms: _141  and  _143
REMARK   59  A    between atoms: _143  and  _144
REMARK   60  A    between atoms: _143  and  _146
REMARK   61  A    between atoms: _146  and  _147
REMARK   62  A    between atoms: _152  and  _154
REMARK   63  A    between atoms: _154  and  _155
REMARK   64  A    between atoms: _154  and  _157
REMARK   65  A    between atoms: _157  and  _158
REMARK   66  A    between atoms: _158  and  _159
REMARK   67  A    between atoms: _161  and  _163
REMARK   68  A    between atoms: _163  and  _164
REMARK   69  A    between atoms: _163  and  _166
REMARK   70  A    between atoms: _166  and  _167
REMARK   71  A    between atoms: _172  and  _174
REMARK   72  A    between atoms: _174  and  _175
REMARK   73  A    between atoms: _174  and  _177
REMARK   74  A    between atoms: _177  and  _178
REMARK   75  A    between atoms: _178  and  _179
REMARK   76  A    between atoms: _179  and  _180
REMARK   77  A    between atoms: _180  and  MG_450
REMARK   78  A    between atoms: _182  and  _184
REMARK   79  A    between atoms: _184  and  _185
REMARK   80  A    between atoms: _184  and  _187
REMARK   81  A    between atoms: _187  and  _188
REMARK   82  A    between atoms: _188  and  _189
REMARK   83  A    between atoms: _192  and  _194
REMARK   84  A    between atoms: _194  and  _195
REMARK   85  A    between atoms: _194  and  _197
REMARK   86  A    between atoms: _197  and  _198
REMARK   87  A    between atoms: _198  and  _199
REMARK   88  A    between atoms: _201  and  _203
REMARK   89  A    between atoms: _203  and  _204
REMARK   90  A    between atoms: _203  and  _206
REMARK   91  A    between atoms: _206  and  _207
REMARK   92  A    between atoms: _212  and  _213
REMARK   93  A    between atoms: _215  and  _217
REMARK   94  A    between atoms: _217  and  _218
REMARK   95  A    between atoms: _217  and  _220
REMARK   96  A    between atoms: _220  and  _221
REMARK   97  A    between atoms: _221  and  _222
REMARK   98  A    between atoms: _222  and  _223
REMARK   99  A    between atoms: _223  and  _224
REMARK  100  A    between atoms: _228  and  _230
REMARK  101  A    between atoms: _230  and  _231
REMARK  102  A    between atoms: _230  and  _233
REMARK  103  A    between atoms: _235  and  _237
REMARK  104  A    between atoms: _237  and  _238
REMARK  105  A    between atoms: _237  and  _240
REMARK  106  A    between atoms: _240  and  _241
REMARK  107  A    between atoms: _241  and  _242
REMARK  108  A    between atoms: _245  and  _247
REMARK  109  A    between atoms: _247  and  _248
REMARK  110  A    between atoms: _247  and  _250
REMARK  111  A    between atoms: _250  and  _251
REMARK  112  A    between atoms: _256  and  _258
REMARK  113  A    between atoms: _258  and  _259
REMARK  114  A    between atoms: _262  and  _264
REMARK  115  A    between atoms: _264  and  _265
REMARK  116  A    between atoms: _264  and  _267
REMARK  117  A    between atoms: _267  and  _268
REMARK  118  A    between atoms: _268  and  _269
REMARK  119  A    between atoms: _271  and  _273
REMARK  120  A    between atoms: _273  and  _274
REMARK  121  A    between atoms: _273  and  _276
REMARK  122  A    between atoms: _276  and  _277
REMARK  123  A    between atoms: _287  and  _289
REMARK  124  A    between atoms: _289  and  _290
REMARK  125  A    between atoms: _289  and  _292
REMARK  126  A    between atoms: _292  and  _293
REMARK  127  A    between atoms: _296  and  _298
REMARK  128  A    between atoms: _298  and  _299
REMARK  129  A    between atoms: _298  and  _301
REMARK  130  A    between atoms: _301  and  _302
REMARK  131  A    between atoms: _302  and  _303
REMARK  132  A    between atoms: _308  and  _310
REMARK  133  A    between atoms: _310  and  _311
REMARK  134  A    between atoms: _310  and  _313
REMARK  135  A    between atoms: _313  and  _314
REMARK  136  A    between atoms: _317  and  _319
REMARK  137  A    between atoms: _319  and  _320
REMARK  138  A    between atoms: _319  and  _322
REMARK  139  A    between atoms: _322  and  _323
REMARK  140  A    between atoms: _323  and  _324
REMARK  141  A    between atoms: _329  and  _331
REMARK  142  A    between atoms: _331  and  _332
REMARK  143  A    between atoms: _331  and  _334
REMARK  144  A    between atoms: _334  and  _335
REMARK  145  A    between atoms: _341  and  _343
REMARK  146  A    between atoms: _343  and  _344
REMARK  147  A    between atoms: _343  and  _346
REMARK  148  A    between atoms: _348  and  _350
REMARK  149  A    between atoms: _350  and  _351
REMARK  150  A    between atoms: _350  and  _353
REMARK  151  A    between atoms: _353  and  _354
REMARK  152  A    between atoms: _354  and  _355
REMARK  153  A    between atoms: _357  and  _359
REMARK  154  A    between atoms: _359  and  _360
REMARK  155  A    between atoms: _359  and  _362
REMARK  156  A    between atoms: _362  and  _363
REMARK  157  A    between atoms: _368  and  _370
REMARK  158  A    between atoms: _370  and  _371
REMARK  159  A    between atoms: _374  and  _376
REMARK  160  A    between atoms: _376  and  _377
REMARK  161  A    between atoms: _376  and  _379
REMARK  162  A    between atoms: _382  and  _384
REMARK  163  A    between atoms: _384  and  _385
REMARK  164  A    between atoms: _384  and  _387
REMARK  165  A    between atoms: _387  and  _388
REMARK  166  A    between atoms: _391  and  _393
REMARK  167  A    between atoms: _393  and  _394
REMARK  168  A    between atoms: _393  and  _396
REMARK  169  A    between atoms: _396  and  _397
REMARK  170  A    between atoms: _399  and  _401
REMARK  171  A    between atoms: _401  and  _402
REMARK  172  A    between atoms: _401  and  _404
REMARK  173  A    between atoms: _404  and  _405
REMARK  174  A    between atoms: _415  and  _417
REMARK  175  A    between atoms: _417  and  _418
REMARK  176  A    between atoms: _417  and  _420
REMARK  177  A    between atoms: _420  and  _421
REMARK  178  A    between atoms: _423  and  _425
REMARK  179  A    between atoms: _425  and  _426
REMARK  180  A    between atoms: _425  and  _428
REMARK  181  A    between atoms: _428  and  _429
REMARK  182  A    between atoms: _429  and  _430
REMARK  183  A    between atoms: _433  and  _435
REMARK  184  A    between atoms: _435  and  _436
REMARK  185  A    between atoms: _435  and  _438
REMARK  186  A    between atoms: _438  and  _439
REMARK  187  A    between atoms: _439  and  _440
REMARK  188  A    between atoms: _440  and  _441
REMARK                            x       y       z     vdW  Elec       q    Type
REMARK                         _______ _______ _______ _____ _____    ______ ____
ROOT
ATOM      1  O   HOH     1      -7.534 -26.288 -19.944  0.00  0.00    +0.000 OA
ENDROOT
TORSDOF 0
REMARK  Name = ../refined-set-2016/1px4/1px4_pocket.pdb
REMARK  188 active torsions:
REMARK  status: ('A' for Active; 'I' for Inactive)
REMARK    1  A    between atoms: _1  and  _3
REMARK    2  A    between atoms: _3  and  _4
REMARK    3  A    between atoms: _3  and  _6
REMARK    4  A    between atoms: _6  and  _7
REMARK    5  A    between atoms: _12  and  _13
REMARK    6  A    between atoms: _15  and  _17
REMARK    7  A    between atoms: _17  and  _18
REMARK    8  A    between atoms: _17  and  _20
REMARK    9  A    between atoms: _20  and  _21
REMARK   10  A    between atoms: _26  and  _28
REMARK   11  A    between atoms: _28  and  _29
REMARK   12  A    between atoms: _28  and  _31
REMARK   13  A    between atoms: _34  and  _36
REMARK   14  A    between atoms: _36  and  _37
REMARK   15  A    between atoms: _36  and  _39
REMARK   16  A    between atoms: _39  and  _40
REMARK   17  A    between atoms: _43  and  _45
REMARK   18  A    between atoms: _45  and  _46
REMARK   19  A    between atoms: _45  and  _48
REMARK   20  A    between atoms: _48  and  _49
REMARK   21  A    between atoms: _49  and  _50
REMARK   22  A    between atoms: _55  and  _57
REMARK   23  A    between atoms: _57  and  _58
REMARK   24  A    between atoms: _57  and  _60
REMARK   25  A    between atoms: _60  and  _61
REMARK   26  A    between atoms: _64  and  _66
REMARK   27  A    between atoms: _66  and  _67
REMARK   28  A    between atoms: _66  and  _69
REMARK   29  A    between atoms: _69  and  _70
REMARK   30  A    between atoms: _70  and  _71
REMARK   31  A    between atoms: _73  and  _75
REMARK   32  A    between atoms: _75  and  _76
REMARK   33  A    between atoms: _75  and  _78
REMARK   34  A    between atoms: _78  and  _79
REMARK   35  A    between atoms: _84  and  _86
REMARK   36  A    between atoms: _86  and  _87
REMARK   37  A    between atoms: _86  and  _89
REMARK   38  A    between atoms: _89  and  _90
REMARK   39  A    between atoms: _95  and  _97
REMARK   40  A    between atoms: _97  and  _98
REMARK   41  A    between atoms: _97  and  _100
REMARK   42  A    between atoms: _100  and  _101
REMARK   43  A    between atoms: _101  and  _102
REMARK   44  A    between atoms: _102  and  _103
REMARK   45  A    between atoms: _112  and  _114
REMARK   46  A    between atoms: _114  and  _115
REMARK   47  A    between atoms: _114  and  _117
REMARK   48  A    between atoms: _117  and  _118
REMARK   49  A    between atoms: _120  and  _122
REMARK   50  A    between atoms: _122  and  _123
REMARK   51  A    between atoms: _122  and  _125
REMARK   52  A    between atoms: _125  and  _126
REMARK   53  A    between atoms: _131  and  _133
REMARK   54  A    between atoms: _133  and  _134
REMARK   55  A    between atoms: _133  and  _136
REMARK   56  A    between atoms: _136  and  _137
REMARK   57  A    between atoms: _137  and  _138
REMARK   58  A    between atoms: _141  and  _143
REMARK   59  A    between atoms: _143  and  _144
REMARK   60  A    between atoms: _143  and  _146
REMARK   61  A    between atoms: _146  and  _147
REMARK   62  A    between atoms: _152  and  _154
REMARK   63  A    between atoms: _154  and  _155
REMARK   64  A    between atoms: _154  and  _157
REMARK   65  A    between atoms: _157  and  _158
REMARK   66  A    between atoms: _158  and  _159
REMARK   67  A    between atoms: _161  and  _163
REMARK   68  A    between atoms: _163  and  _164
REMARK   69  A    between atoms: _163  and  _166
REMARK   70  A    between atoms: _166  and  _167
REMARK   71  A    between atoms: _172  and  _174
REMARK   72  A    between atoms: _174  and  _175
REMARK   73  A    between atoms: _174  and  _177
REMARK   74  A    between atoms: _177  and  _178
REMARK   75  A    between atoms: _178  and  _179
REMARK   76  A    between atoms: _179  and  _180
REMARK   77  A    between atoms: _180  and  MG_450
REMARK   78  A    between atoms: _182  and  _184
REMARK   79  A    between atoms: _184  and  _185
REMARK   80  A    between atoms: _184  and  _187
REMARK   81  A    between atoms: _187  and  _188
REMARK   82  A    between atoms: _188  and  _189
REMARK   83  A    between atoms: _192  and  _194
REMARK   84  A    between atoms: _194  and  _195
REMARK   85  A    between atoms: _194  and  _197
REMARK   86  A    between atoms: _197  and  _198
REMARK   87  A    between atoms: _198  and  _199
REMARK   88  A    between atoms: _201  and  _203
REMARK   89  A    between atoms: _203  and  _204
REMARK   90  A    between atoms: _203  and  _206
REMARK   91  A    between atoms: _206  and  _207
REMARK   92  A    between atoms: _212  and  _213
REMARK   93  A    between atoms: _215  and  _217
REMARK   94  A    between atoms: _217  and  _218
REMARK   95  A    between atoms: _217  and  _220
REMARK   96  A    between atoms: _220  and  _221
REMARK   97  A    between atoms: _221  and  _222
REMARK   98  A    between atoms: _222  and  _223
REMARK   99  A    between atoms: _223  and  _224
REMARK  100  A    between atoms: _228  and  _230
REMARK  101  A    between atoms: _230  and  _231
REMARK  102  A    between atoms: _230  and  _233
REMARK  103  A    between atoms: _235  and  _237
REMARK  104  A    between atoms: _237  and  _238
REMARK  105  A    between atoms: _237  and  _240
REMARK  106  A    between atoms: _240  and  _241
REMARK  107  A    between atoms: _241  and  _242
REMARK  108  A    between atoms: _245  and  _247
REMARK  109  A    between atoms: _247  and  _248
REMARK  110  A    between atoms: _247  and  _250
REMARK  111  A    between atoms: _250  and  _251
REMARK  112  A    between atoms: _256  and  _258
REMARK  113  A    between atoms: _258  and  _259
REMARK  114  A    between atoms: _262  and  _264
REMARK  115  A    between atoms: _264  and  _265
REMARK  116  A    between atoms: _264  and  _267
REMARK  117  A    between atoms: _267  and  _268
REMARK  118  A    between atoms: _268  and  _269
REMARK  119  A    between atoms: _271  and  _273
REMARK  120  A    between atoms: _273  and  _274
REMARK  121  A    between atoms: _273  and  _276
REMARK  122  A    between atoms: _276  and  _277
REMARK  123  A    between atoms: _287  and  _289
REMARK  124  A    between atoms: _289  and  _290
REMARK  125  A    between atoms: _289  and  _292
REMARK  126  A    between atoms: _292  and  _293
REMARK  127  A    between atoms: _296  and  _298
REMARK  128  A    between atoms: _298  and  _299
REMARK  129  A    between atoms: _298  and  _301
REMARK  130  A    between atoms: _301  and  _302
REMARK  131  A    between atoms: _302  and  _303
REMARK  132  A    between atoms: _308  and  _310
REMARK  133  A    between atoms: _310  and  _311
REMARK  134  A    between atoms: _310  and  _313
REMARK  135  A    between atoms: _313  and  _314
REMARK  136  A    between atoms: _317  and  _319
REMARK  137  A    between atoms: _319  and  _320
REMARK  138  A    between atoms: _319  and  _322
REMARK  139  A    between atoms: _322  and  _323
REMARK  140  A    between atoms: _323  and  _324
REMARK  141  A    between atoms: _329  and  _331
REMARK  142  A    between atoms: _331  and  _332
REMARK  143  A    between atoms: _331  and  _334
REMARK  144  A    between atoms: _334  and  _335
REMARK  145  A    between atoms: _341  and  _343
REMARK  146  A    between atoms: _343  and  _344
REMARK  147  A    between atoms: _343  and  _346
REMARK  148  A    between atoms: _348  and  _350
REMARK  149  A    between atoms: _350  and  _351
REMARK  150  A    between atoms: _350  and  _353
REMARK  151  A    between atoms: _353  and  _354
REMARK  152  A    between atoms: _354  and  _355
REMARK  153  A    between atoms: _357  and  _359
REMARK  154  A    between atoms: _359  and  _360
REMARK  155  A    between atoms: _359  and  _362
REMARK  156  A    between atoms: _362  and  _363
REMARK  157  A    between atoms: _368  and  _370
REMARK  158  A    between atoms: _370  and  _371
REMARK  159  A    between atoms: _374  and  _376
REMARK  160  A    between atoms: _376  and  _377
REMARK  161  A    between atoms: _376  and  _379
REMARK  162  A    between atoms: _382  and  _384
REMARK  163  A    between atoms: _384  and  _385
REMARK  164  A    between atoms: _384  and  _387
REMARK  165  A    between atoms: _387  and  _388
REMARK  166  A    between atoms: _391  and  _393
REMARK  167  A    between atoms: _393  and  _394
REMARK  168  A    between atoms: _393  and  _396
REMARK  169  A    between atoms: _396  and  _397
REMARK  170  A    between atoms: _399  and  _401
REMARK  171  A    between atoms: _401  and  _402
REMARK  172  A    between atoms: _401  and  _404
REMARK  173  A    between atoms: _404  and  _405
REMARK  174  A    between atoms: _415  and  _417
REMARK  175  A    between atoms: _417  and  _418
REMARK  176  A    between atoms: _417  and  _420
REMARK  177  A    between atoms: _420  and  _421
REMARK  178  A    between atoms: _423  and  _425
REMARK  179  A    between atoms: _425  and  _426
REMARK  180  A    between atoms: _425  and  _428
REMARK  181  A    between atoms: _428  and  _429
REMARK  182  A    between atoms: _429  and  _430
REMARK  183  A    between atoms: _433  and  _435
REMARK  184  A    between atoms: _435  and  _436
REMARK  185  A    between atoms: _435  and  _438
REMARK  186  A    between atoms: _438  and  _439
REMARK  187  A    between atoms: _439  and  _440
REMARK  188  A    between atoms: _440  and  _441
REMARK                            x       y       z     vdW  Elec       q    Type
REMARK                         _______ _______ _______ _____ _____    ______ ____
ROOT
ATOM      1  O   HOH     1      -5.872 -32.998 -32.675  0.00  0.00    +0.000 OA
ENDROOT
TORSDOF 0
REMARK  Name = ../refined-set-2016/1px4/1px4_pocket.pdb
REMARK  188 active torsions:
REMARK  status: ('A' for Active; 'I' for Inactive)
REMARK    1  A    between atoms: _1  and  _3
REMARK    2  A    between atoms: _3  and  _4
REMARK    3  A    between atoms: _3  and  _6
REMARK    4  A    between atoms: _6  and  _7
REMARK    5  A    between atoms: _12  and  _13
REMARK    6  A    between atoms: _15  and  _17
REMARK    7  A    between atoms: _17  and  _18
REMARK    8  A    between atoms: _17  and  _20
REMARK    9  A    between atoms: _20  and  _21
REMARK   10  A    between atoms: _26  and  _28
REMARK   11  A    between atoms: _28  and  _29
REMARK   12  A    between atoms: _28  and  _31
REMARK   13  A    between atoms: _34  and  _36
REMARK   14  A    between atoms: _36  and  _37
REMARK   15  A    between atoms: _36  and  _39
REMARK   16  A    between atoms: _39  and  _40
REMARK   17  A    between atoms: _43  and  _45
REMARK   18  A    between atoms: _45  and  _46
REMARK   19  A    between atoms: _45  and  _48
REMARK   20  A    between atoms: _48  and  _49
REMARK   21  A    between atoms: _49  and  _50
REMARK   22  A    between atoms: _55  and  _57
REMARK   23  A    between atoms: _57  and  _58
REMARK   24  A    between atoms: _57  and  _60
REMARK   25  A    between atoms: _60  and  _61
REMARK   26  A    between atoms: _64  and  _66
REMARK   27  A    between atoms: _66  and  _67
REMARK   28  A    between atoms: _66  and  _69
REMARK   29  A    between atoms: _69  and  _70
REMARK   30  A    between atoms: _70  and  _71
REMARK   31  A    between atoms: _73  and  _75
REMARK   32  A    between atoms: _75  and  _76
REMARK   33  A    between atoms: _75  and  _78
REMARK   34  A    between atoms: _78  and  _79
REMARK   35  A    between atoms: _84  and  _86
REMARK   36  A    between atoms: _86  and  _87
REMARK   37  A    between atoms: _86  and  _89
REMARK   38  A    between atoms: _89  and  _90
REMARK   39  A    between atoms: _95  and  _97
REMARK   40  A    between atoms: _97  and  _98
REMARK   41  A    between atoms: _97  and  _100
REMARK   42  A    between atoms: _100  and  _101
REMARK   43  A    between atoms: _101  and  _102
REMARK   44  A    between atoms: _102  and  _103
REMARK   45  A    between atoms: _112  and  _114
REMARK   46  A    between atoms: _114  and  _115
REMARK   47  A    between atoms: _114  and  _117
REMARK   48  A    between atoms: _117  and  _118
REMARK   49  A    between atoms: _120  and  _122
REMARK   50  A    between atoms: _122  and  _123
REMARK   51  A    between atoms: _122  and  _125
REMARK   52  A    between atoms: _125  and  _126
REMARK   53  A    between atoms: _131  and  _133
REMARK   54  A    between atoms: _133  and  _134
REMARK   55  A    between atoms: _133  and  _136
REMARK   56  A    between atoms: _136  and  _137
REMARK   57  A    between atoms: _137  and  _138
REMARK   58  A    between atoms: _141  and  _143
REMARK   59  A    between atoms: _143  and  _144
REMARK   60  A    between atoms: _143  and  _146
REMARK   61  A    between atoms: _146  and  _147
REMARK   62  A    between atoms: _152  and  _154
REMARK   63  A    between atoms: _154  and  _155
REMARK   64  A    between atoms: _154  and  _157
REMARK   65  A    between atoms: _157  and  _158
REMARK   66  A    between atoms: _158  and  _159
REMARK   67  A    between atoms: _161  and  _163
REMARK   68  A    between atoms: _163  and  _164
REMARK   69  A    between atoms: _163  and  _166
REMARK   70  A    between atoms: _166  and  _167
REMARK   71  A    between atoms: _172  and  _174
REMARK   72  A    between atoms: _174  and  _175
REMARK   73  A    between atoms: _174  and  _177
REMARK   74  A    between atoms: _177  and  _178
REMARK   75  A    between atoms: _178  and  _179
REMARK   76  A    between atoms: _179  and  _180
REMARK   77  A    between atoms: _180  and  MG_450
REMARK   78  A    between atoms: _182  and  _184
REMARK   79  A    between atoms: _184  and  _185
REMARK   80  A    between atoms: _184  and  _187
REMARK   81  A    between atoms: _187  and  _188
REMARK   82  A    between atoms: _188  and  _189
REMARK   83  A    between atoms: _192  and  _194
REMARK   84  A    between atoms: _194  and  _195
REMARK   85  A    between atoms: _194  and  _197
REMARK   86  A    between atoms: _197  and  _198
REMARK   87  A    between atoms: _198  and  _199
REMARK   88  A    between atoms: _201  and  _203
REMARK   89  A    between atoms: _203  and  _204
REMARK   90  A    between atoms: _203  and  _206
REMARK   91  A    between atoms: _206  and  _207
REMARK   92  A    between atoms: _212  and  _213
REMARK   93  A    between atoms: _215  and  _217
REMARK   94  A    between atoms: _217  and  _218
REMARK   95  A    between atoms: _217  and  _220
REMARK   96  A    between atoms: _220  and  _221
REMARK   97  A    between atoms: _221  and  _222
REMARK   98  A    between atoms: _222  and  _223
REMARK   99  A    between atoms: _223  and  _224
REMARK  100  A    between atoms: _228  and  _230
REMARK  101  A    between atoms: _230  and  _231
REMARK  102  A    between atoms: _230  and  _233
REMARK  103  A    between atoms: _235  and  _237
REMARK  104  A    between atoms: _237  and  _238
REMARK  105  A    between atoms: _237  and  _240
REMARK  106  A    between atoms: _240  and  _241
REMARK  107  A    between atoms: _241  and  _242
REMARK  108  A    between atoms: _245  and  _247
REMARK  109  A    between atoms: _247  and  _248
REMARK  110  A    between atoms: _247  and  _250
REMARK  111  A    between atoms: _250  and  _251
REMARK  112  A    between atoms: _256  and  _258
REMARK  113  A    between atoms: _258  and  _259
REMARK  114  A    between atoms: _262  and  _264
REMARK  115  A    between atoms: _264  and  _265
REMARK  116  A    between atoms: _264  and  _267
REMARK  117  A    between atoms: _267  and  _268
REMARK  118  A    between atoms: _268  and  _269
REMARK  119  A    between atoms: _271  and  _273
REMARK  120  A    between atoms: _273  and  _274
REMARK  121  A    between atoms: _273  and  _276
REMARK  122  A    between atoms: _276  and  _277
REMARK  123  A    between atoms: _287  and  _289
REMARK  124  A    between atoms: _289  and  _290
REMARK  125  A    between atoms: _289  and  _292
REMARK  126  A    between atoms: _292  and  _293
REMARK  127  A    between atoms: _296  and  _298
REMARK  128  A    between atoms: _298  and  _299
REMARK  129  A    between atoms: _298  and  _301
REMARK  130  A    between atoms: _301  and  _302
REMARK  131  A    between atoms: _302  and  _303
REMARK  132  A    between atoms: _308  and  _310
REMARK  133  A    between atoms: _310  and  _311
REMARK  134  A    between atoms: _310  and  _313
REMARK  135  A    between atoms: _313  and  _314
REMARK  136  A    between atoms: _317  and  _319
REMARK  137  A    between atoms: _319  and  _320
REMARK  138  A    between atoms: _319  and  _322
REMARK  139  A    between atoms: _322  and  _323
REMARK  140  A    between atoms: _323  and  _324
REMARK  141  A    between atoms: _329  and  _331
REMARK  142  A    between atoms: _331  and  _332
REMARK  143  A    between atoms: _331  and  _334
REMARK  144  A    between atoms: _334  and  _335
REMARK  145  A    between atoms: _341  and  _343
REMARK  146  A    between atoms: _343  and  _344
REMARK  147  A    between atoms: _343  and  _346
REMARK  148  A    between atoms: _348  and  _350
REMARK  149  A    between atoms: _350  and  _351
REMARK  150  A    between atoms: _350  and  _353
REMARK  151  A    between atoms: _353  and  _354
REMARK  152  A    between atoms: _354  and  _355
REMARK  153  A    between atoms: _357  and  _359
REMARK  154  A    between atoms: _359  and  _360
REMARK  155  A    between atoms: _359  and  _362
REMARK  156  A    between atoms: _362  and  _363
REMARK  157  A    between atoms: _368  and  _370
REMARK  158  A    between atoms: _370  and  _371
REMARK  159  A    between atoms: _374  and  _376
REMARK  160  A    between atoms: _376  and  _377
REMARK  161  A    between atoms: _376  and  _379
REMARK  162  A    between atoms: _382  and  _384
REMARK  163  A    between atoms: _384  and  _385
REMARK  164  A    between atoms: _384  and  _387
REMARK  165  A    between atoms: _387  and  _388
REMARK  166  A    between atoms: _391  and  _393
REMARK  167  A    between atoms: _393  and  _394
REMARK  168  A    between atoms: _393  and  _396
REMARK  169  A    between atoms: _396  and  _397
REMARK  170  A    between atoms: _399  and  _401
REMARK  171  A    between atoms: _401  and  _402
REMARK  172  A    between atoms: _401  and  _404
REMARK  173  A    between atoms: _404  and  _405
REMARK  174  A    between atoms: _415  and  _417
REMARK  175  A    between atoms: _417  and  _418
REMARK  176  A    between atoms: _417  and  _420
REMARK  177  A    between atoms: _420  and  _421
REMARK  178  A    between atoms: _423  and  _425
REMARK  179  A    between atoms: _425  and  _426
REMARK  180  A    between atoms: _425  and  _428
REMARK  181  A    between atoms: _428  and  _429
REMARK  182  A    between atoms: _429  and  _430
REMARK  183  A    between atoms: _433  and  _435
REMARK  184  A    between atoms: _435  and  _436
REMARK  185  A    between atoms: _435  and  _438
REMARK  186  A    between atoms: _438  and  _439
REMARK  187  A    between atoms: _439  and  _440
REMARK  188  A    between atoms: _440  and  _441
REMARK                            x       y       z     vdW  Elec       q    Type
REMARK                         _______ _______ _______ _____ _____    ______ ____
ROOT
ATOM      1  O   HOH     1     -11.139 -34.308 -23.921  0.00  0.00    +0.000 OA
ENDROOT
TORSDOF 0
REMARK  Name = ../refined-set-2016/1px4/1px4_pocket.pdb
REMARK  188 active torsions:
REMARK  status: ('A' for Active; 'I' for Inactive)
REMARK    1  A    between atoms: _1  and  _3
REMARK    2  A    between atoms: _3  and  _4
REMARK    3  A    between atoms: _3  and  _6
REMARK    4  A    between atoms: _6  and  _7
REMARK    5  A    between atoms: _12  and  _13
REMARK    6  A    between atoms: _15  and  _17
REMARK    7  A    between atoms: _17  and  _18
REMARK    8  A    between atoms: _17  and  _20
REMARK    9  A    between atoms: _20  and  _21
REMARK   10  A    between atoms: _26  and  _28
REMARK   11  A    between atoms: _28  and  _29
REMARK   12  A    between atoms: _28  and  _31
REMARK   13  A    between atoms: _34  and  _36
REMARK   14  A    between atoms: _36  and  _37
REMARK   15  A    between atoms: _36  and  _39
REMARK   16  A    between atoms: _39  and  _40
REMARK   17  A    between atoms: _43  and  _45
REMARK   18  A    between atoms: _45  and  _46
REMARK   19  A    between atoms: _45  and  _48
REMARK   20  A    between atoms: _48  and  _49
REMARK   21  A    between atoms: _49  and  _50
REMARK   22  A    between atoms: _55  and  _57
REMARK   23  A    between atoms: _57  and  _58
REMARK   24  A    between atoms: _57  and  _60
REMARK   25  A    between atoms: _60  and  _61
REMARK   26  A    between atoms: _64  and  _66
REMARK   27  A    between atoms: _66  and  _67
REMARK   28  A    between atoms: _66  and  _69
REMARK   29  A    between atoms: _69  and  _70
REMARK   30  A    between atoms: _70  and  _71
REMARK   31  A    between atoms: _73  and  _75
REMARK   32  A    between atoms: _75  and  _76
REMARK   33  A    between atoms: _75  and  _78
REMARK   34  A    between atoms: _78  and  _79
REMARK   35  A    between atoms: _84  and  _86
REMARK   36  A    between atoms: _86  and  _87
REMARK   37  A    between atoms: _86  and  _89
REMARK   38  A    between atoms: _89  and  _90
REMARK   39  A    between atoms: _95  and  _97
REMARK   40  A    between atoms: _97  and  _98
REMARK   41  A    between atoms: _97  and  _100
REMARK   42  A    between atoms: _100  and  _101
REMARK   43  A    between atoms: _101  and  _102
REMARK   44  A    between atoms: _102  and  _103
REMARK   45  A    between atoms: _112  and  _114
REMARK   46  A    between atoms: _114  and  _115
REMARK   47  A    between atoms: _114  and  _117
REMARK   48  A    between atoms: _117  and  _118
REMARK   49  A    between atoms: _120  and  _122
REMARK   50  A    between atoms: _122  and  _123
REMARK   51  A    between atoms: _122  and  _125
REMARK   52  A    between atoms: _125  and  _126
REMARK   53  A    between atoms: _131  and  _133
REMARK   54  A    between atoms: _133  and  _134
REMARK   55  A    between atoms: _133  and  _136
REMARK   56  A    between atoms: _136  and  _137
REMARK   57  A    between atoms: _137  and  _138
REMARK   58  A    between atoms: _141  and  _143
REMARK   59  A    between atoms: _143  and  _144
REMARK   60  A    between atoms: _143  and  _146
REMARK   61  A    between atoms: _146  and  _147
REMARK   62  A    between atoms: _152  and  _154
REMARK   63  A    between atoms: _154  and  _155
REMARK   64  A    between atoms: _154  and  _157
REMARK   65  A    between atoms: _157  and  _158
REMARK   66  A    between atoms: _158  and  _159
REMARK   67  A    between atoms: _161  and  _163
REMARK   68  A    between atoms: _163  and  _164
REMARK   69  A    between atoms: _163  and  _166
REMARK   70  A    between atoms: _166  and  _167
REMARK   71  A    between atoms: _172  and  _174
REMARK   72  A    between atoms: _174  and  _175
REMARK   73  A    between atoms: _174  and  _177
REMARK   74  A    between atoms: _177  and  _178
REMARK   75  A    between atoms: _178  and  _179
REMARK   76  A    between atoms: _179  and  _180
REMARK   77  A    between atoms: _180  and  MG_450
REMARK   78  A    between atoms: _182  and  _184
REMARK   79  A    between atoms: _184  and  _185
REMARK   80  A    between atoms: _184  and  _187
REMARK   81  A    between atoms: _187  and  _188
REMARK   82  A    between atoms: _188  and  _189
REMARK   83  A    between atoms: _192  and  _194
REMARK   84  A    between atoms: _194  and  _195
REMARK   85  A    between atoms: _194  and  _197
REMARK   86  A    between atoms: _197  and  _198
REMARK   87  A    between atoms: _198  and  _199
REMARK   88  A    between atoms: _201  and  _203
REMARK   89  A    between atoms: _203  and  _204
REMARK   90  A    between atoms: _203  and  _206
REMARK   91  A    between atoms: _206  and  _207
REMARK   92  A    between atoms: _212  and  _213
REMARK   93  A    between atoms: _215  and  _217
REMARK   94  A    between atoms: _217  and  _218
REMARK   95  A    between atoms: _217  and  _220
REMARK   96  A    between atoms: _220  and  _221
REMARK   97  A    between atoms: _221  and  _222
REMARK   98  A    between atoms: _222  and  _223
REMARK   99  A    between atoms: _223  and  _224
REMARK  100  A    between atoms: _228  and  _230
REMARK  101  A    between atoms: _230  and  _231
REMARK  102  A    between atoms: _230  and  _233
REMARK  103  A    between atoms: _235  and  _237
REMARK  104  A    between atoms: _237  and  _238
REMARK  105  A    between atoms: _237  and  _240
REMARK  106  A    between atoms: _240  and  _241
REMARK  107  A    between atoms: _241  and  _242
REMARK  108  A    between atoms: _245  and  _247
REMARK  109  A    between atoms: _247  and  _248
REMARK  110  A    between atoms: _247  and  _250
REMARK  111  A    between atoms: _250  and  _251
REMARK  112  A    between atoms: _256  and  _258
REMARK  113  A    between atoms: _258  and  _259
REMARK  114  A    between atoms: _262  and  _264
REMARK  115  A    between atoms: _264  and  _265
REMARK  116  A    between atoms: _264  and  _267
REMARK  117  A    between atoms: _267  and  _268
REMARK  118  A    between atoms: _268  and  _269
REMARK  119  A    between atoms: _271  and  _273
REMARK  120  A    between atoms: _273  and  _274
REMARK  121  A    between atoms: _273  and  _276
REMARK  122  A    between atoms: _276  and  _277
REMARK  123  A    between atoms: _287  and  _289
REMARK  124  A    between atoms: _289  and  _290
REMARK  125  A    between atoms: _289  and  _292
REMARK  126  A    between atoms: _292  and  _293
REMARK  127  A    between atoms: _296  and  _298
REMARK  128  A    between atoms: _298  and  _299
REMARK  129  A    between atoms: _298  and  _301
REMARK  130  A    between atoms: _301  and  _302
REMARK  131  A    between atoms: _302  and  _303
REMARK  132  A    between atoms: _308  and  _310
REMARK  133  A    between atoms: _310  and  _311
REMARK  134  A    between atoms: _310  and  _313
REMARK  135  A    between atoms: _313  and  _314
REMARK  136  A    between atoms: _317  and  _319
REMARK  137  A    between atoms: _319  and  _320
REMARK  138  A    between atoms: _319  and  _322
REMARK  139  A    between atoms: _322  and  _323
REMARK  140  A    between atoms: _323  and  _324
REMARK  141  A    between atoms: _329  and  _331
REMARK  142  A    between atoms: _331  and  _332
REMARK  143  A    between atoms: _331  and  _334
REMARK  144  A    between atoms: _334  and  _335
REMARK  145  A    between atoms: _341  and  _343
REMARK  146  A    between atoms: _343  and  _344
REMARK  147  A    between atoms: _343  and  _346
REMARK  148  A    between atoms: _348  and  _350
REMARK  149  A    between atoms: _350  and  _351
REMARK  150  A    between atoms: _350  and  _353
REMARK  151  A    between atoms: _353  and  _354
REMARK  152  A    between atoms: _354  and  _355
REMARK  153  A    between atoms: _357  and  _359
REMARK  154  A    between atoms: _359  and  _360
REMARK  155  A    between atoms: _359  and  _362
REMARK  156  A    between atoms: _362  and  _363
REMARK  157  A    between atoms: _368  and  _370
REMARK  158  A    between atoms: _370  and  _371
REMARK  159  A    between atoms: _374  and  _376
REMARK  160  A    between atoms: _376  and  _377
REMARK  161  A    between atoms: _376  and  _379
REMARK  162  A    between atoms: _382  and  _384
REMARK  163  A    between atoms: _384  and  _385
REMARK  164  A    between atoms: _384  and  _387
REMARK  165  A    between atoms: _387  and  _388
REMARK  166  A    between atoms: _391  and  _393
REMARK  167  A    between atoms: _393  and  _394
REMARK  168  A    between atoms: _393  and  _396
REMARK  169  A    between atoms: _396  and  _397
REMARK  170  A    between atoms: _399  and  _401
REMARK  171  A    between atoms: _401  and  _402
REMARK  172  A    between atoms: _401  and  _404
REMARK  173  A    between atoms: _404  and  _405
REMARK  174  A    between atoms: _415  and  _417
REMARK  175  A    between atoms: _417  and  _418
REMARK  176  A    between atoms: _417  and  _420
REMARK  177  A    between atoms: _420  and  _421
REMARK  178  A    between atoms: _423  and  _425
REMARK  179  A    between atoms: _425  and  _426
REMARK  180  A    between atoms: _425  and  _428
REMARK  181  A    between atoms: _428  and  _429
REMARK  182  A    between atoms: _429  and  _430
REMARK  183  A    between atoms: _433  and  _435
REMARK  184  A    between atoms: _435  and  _436
REMARK  185  A    between atoms: _435  and  _438
REMARK  186  A    between atoms: _438  and  _439
REMARK  187  A    between atoms: _439  and  _440
REMARK  188  A    between atoms: _440  and  _441
REMARK                            x       y       z     vdW  Elec       q    Type
REMARK                         _______ _______ _______ _____ _____    ______ ____
ROOT
ATOM      1  O   HOH     1     -17.274 -36.776 -26.452  0.00  0.00    +0.000 OA
ENDROOT
TORSDOF 0
REMARK  Name = ../refined-set-2016/1px4/1px4_pocket.pdb
REMARK  188 active torsions:
REMARK  status: ('A' for Active; 'I' for Inactive)
REMARK    1  A    between atoms: _1  and  _3
REMARK    2  A    between atoms: _3  and  _4
REMARK    3  A    between atoms: _3  and  _6
REMARK    4  A    between atoms: _6  and  _7
REMARK    5  A    between atoms: _12  and  _13
REMARK    6  A    between atoms: _15  and  _17
REMARK    7  A    between atoms: _17  and  _18
REMARK    8  A    between atoms: _17  and  _20
REMARK    9  A    between atoms: _20  and  _21
REMARK   10  A    between atoms: _26  and  _28
REMARK   11  A    between atoms: _28  and  _29
REMARK   12  A    between atoms: _28  and  _31
REMARK   13  A    between atoms: _34  and  _36
REMARK   14  A    between atoms: _36  and  _37
REMARK   15  A    between atoms: _36  and  _39
REMARK   16  A    between atoms: _39  and  _40
REMARK   17  A    between atoms: _43  and  _45
REMARK   18  A    between atoms: _45  and  _46
REMARK   19  A    between atoms: _45  and  _48
REMARK   20  A    between atoms: _48  and  _49
REMARK   21  A    between atoms: _49  and  _50
REMARK   22  A    between atoms: _55  and  _57
REMARK   23  A    between atoms: _57  and  _58
REMARK   24  A    between atoms: _57  and  _60
REMARK   25  A    between atoms: _60  and  _61
REMARK   26  A    between atoms: _64  and  _66
REMARK   27  A    between atoms: _66  and  _67
REMARK   28  A    between atoms: _66  and  _69
REMARK   29  A    between atoms: _69  and  _70
REMARK   30  A    between atoms: _70  and  _71
REMARK   31  A    between atoms: _73  and  _75
REMARK   32  A    between atoms: _75  and  _76
REMARK   33  A    between atoms: _75  and  _78
REMARK   34  A    between atoms: _78  and  _79
REMARK   35  A    between atoms: _84  and  _86
REMARK   36  A    between atoms: _86  and  _87
REMARK   37  A    between atoms: _86  and  _89
REMARK   38  A    between atoms: _89  and  _90
REMARK   39  A    between atoms: _95  and  _97
REMARK   40  A    between atoms: _97  and  _98
REMARK   41  A    between atoms: _97  and  _100
REMARK   42  A    between atoms: _100  and  _101
REMARK   43  A    between atoms: _101  and  _102
REMARK   44  A    between atoms: _102  and  _103
REMARK   45  A    between atoms: _112  and  _114
REMARK   46  A    between atoms: _114  and  _115
REMARK   47  A    between atoms: _114  and  _117
REMARK   48  A    between atoms: _117  and  _118
REMARK   49  A    between atoms: _120  and  _122
REMARK   50  A    between atoms: _122  and  _123
REMARK   51  A    between atoms: _122  and  _125
REMARK   52  A    between atoms: _125  and  _126
REMARK   53  A    between atoms: _131  and  _133
REMARK   54  A    between atoms: _133  and  _134
REMARK   55  A    between atoms: _133  and  _136
REMARK   56  A    between atoms: _136  and  _137
REMARK   57  A    between atoms: _137  and  _138
REMARK   58  A    between atoms: _141  and  _143
REMARK   59  A    between atoms: _143  and  _144
REMARK   60  A    between atoms: _143  and  _146
REMARK   61  A    between atoms: _146  and  _147
REMARK   62  A    between atoms: _152  and  _154
REMARK   63  A    between atoms: _154  and  _155
REMARK   64  A    between atoms: _154  and  _157
REMARK   65  A    between atoms: _157  and  _158
REMARK   66  A    between atoms: _158  and  _159
REMARK   67  A    between atoms: _161  and  _163
REMARK   68  A    between atoms: _163  and  _164
REMARK   69  A    between atoms: _163  and  _166
REMARK   70  A    between atoms: _166  and  _167
REMARK   71  A    between atoms: _172  and  _174
REMARK   72  A    between atoms: _174  and  _175
REMARK   73  A    between atoms: _174  and  _177
REMARK   74  A    between atoms: _177  and  _178
REMARK   75  A    between atoms: _178  and  _179
REMARK   76  A    between atoms: _179  and  _180
REMARK   77  A    between atoms: _180  and  MG_450
REMARK   78  A    between atoms: _182  and  _184
REMARK   79  A    between atoms: _184  and  _185
REMARK   80  A    between atoms: _184  and  _187
REMARK   81  A    between atoms: _187  and  _188
REMARK   82  A    between atoms: _188  and  _189
REMARK   83  A    between atoms: _192  and  _194
REMARK   84  A    between atoms: _194  and  _195
REMARK   85  A    between atoms: _194  and  _197
REMARK   86  A    between atoms: _197  and  _198
REMARK   87  A    between atoms: _198  and  _199
REMARK   88  A    between atoms: _201  and  _203
REMARK   89  A    between atoms: _203  and  _204
REMARK   90  A    between atoms: _203  and  _206
REMARK   91  A    between atoms: _206  and  _207
REMARK   92  A    between atoms: _212  and  _213
REMARK   93  A    between atoms: _215  and  _217
REMARK   94  A    between atoms: _217  and  _218
REMARK   95  A    between atoms: _217  and  _220
REMARK   96  A    between atoms: _220  and  _221
REMARK   97  A    between atoms: _221  and  _222
REMARK   98  A    between atoms: _222  and  _223
REMARK   99  A    between atoms: _223  and  _224
REMARK  100  A    between atoms: _228  and  _230
REMARK  101  A    between atoms: _230  and  _231
REMARK  102  A    between atoms: _230  and  _233
REMARK  103  A    between atoms: _235  and  _237
REMARK  104  A    between atoms: _237  and  _238
REMARK  105  A    between atoms: _237  and  _240
REMARK  106  A    between atoms: _240  and  _241
REMARK  107  A    between atoms: _241  and  _242
REMARK  108  A    between atoms: _245  and  _247
REMARK  109  A    between atoms: _247  and  _248
REMARK  110  A    between atoms: _247  and  _250
REMARK  111  A    between atoms: _250  and  _251
REMARK  112  A    between atoms: _256  and  _258
REMARK  113  A    between atoms: _258  and  _259
REMARK  114  A    between atoms: _262  and  _264
REMARK  115  A    between atoms: _264  and  _265
REMARK  116  A    between atoms: _264  and  _267
REMARK  117  A    between atoms: _267  and  _268
REMARK  118  A    between atoms: _268  and  _269
REMARK  119  A    between atoms: _271  and  _273
REMARK  120  A    between atoms: _273  and  _274
REMARK  121  A    between atoms: _273  and  _276
REMARK  122  A    between atoms: _276  and  _277
REMARK  123  A    between atoms: _287  and  _289
REMARK  124  A    between atoms: _289  and  _290
REMARK  125  A    between atoms: _289  and  _292
REMARK  126  A    between atoms: _292  and  _293
REMARK  127  A    between atoms: _296  and  _298
REMARK  128  A    between atoms: _298  and  _299
REMARK  129  A    between atoms: _298  and  _301
REMARK  130  A    between atoms: _301  and  _302
REMARK  131  A    between atoms: _302  and  _303
REMARK  132  A    between atoms: _308  and  _310
REMARK  133  A    between atoms: _310  and  _311
REMARK  134  A    between atoms: _310  and  _313
REMARK  135  A    between atoms: _313  and  _314
REMARK  136  A    between atoms: _317  and  _319
REMARK  137  A    between atoms: _319  and  _320
REMARK  138  A    between atoms: _319  and  _322
REMARK  139  A    between atoms: _322  and  _323
REMARK  140  A    between atoms: _323  and  _324
REMARK  141  A    between atoms: _329  and  _331
REMARK  142  A    between atoms: _331  and  _332
REMARK  143  A    between atoms: _331  and  _334
REMARK  144  A    between atoms: _334  and  _335
REMARK  145  A    between atoms: _341  and  _343
REMARK  146  A    between atoms: _343  and  _344
REMARK  147  A    between atoms: _343  and  _346
REMARK  148  A    between atoms: _348  and  _350
REMARK  149  A    between atoms: _350  and  _351
REMARK  150  A    between atoms: _350  and  _353
REMARK  151  A    between atoms: _353  and  _354
REMARK  152  A    between atoms: _354  and  _355
REMARK  153  A    between atoms: _357  and  _359
REMARK  154  A    between atoms: _359  and  _360
REMARK  155  A    between atoms: _359  and  _362
REMARK  156  A    between atoms: _362  and  _363
REMARK  157  A    between atoms: _368  and  _370
REMARK  158  A    between atoms: _370  and  _371
REMARK  159  A    between atoms: _374  and  _376
REMARK  160  A    between atoms: _376  and  _377
REMARK  161  A    between atoms: _376  and  _379
REMARK  162  A    between atoms: _382  and  _384
REMARK  163  A    between atoms: _384  and  _385
REMARK  164  A    between atoms: _384  and  _387
REMARK  165  A    between atoms: _387  and  _388
REMARK  166  A    between atoms: _391  and  _393
REMARK  167  A    between atoms: _393  and  _394
REMARK  168  A    between atoms: _393  and  _396
REMARK  169  A    between atoms: _396  and  _397
REMARK  170  A    between atoms: _399  and  _401
REMARK  171  A    between atoms: _401  and  _402
REMARK  172  A    between atoms: _401  and  _404
REMARK  173  A    between atoms: _404  and  _405
REMARK  174  A    between atoms: _415  and  _417
REMARK  175  A    between atoms: _417  and  _418
REMARK  176  A    between atoms: _417  and  _420
REMARK  177  A    between atoms: _420  and  _421
REMARK  178  A    between atoms: _423  and  _425
REMARK  179  A    between atoms: _425  and  _426
REMARK  180  A    between atoms: _425  and  _428
REMARK  181  A    between atoms: _428  and  _429
REMARK  182  A    between atoms: _429  and  _430
REMARK  183  A    between atoms: _433  and  _435
REMARK  184  A    between atoms: _435  and  _436
REMARK  185  A    between atoms: _435  and  _438
REMARK  186  A    between atoms: _438  and  _439
REMARK  187  A    between atoms: _439  and  _440
REMARK  188  A    between atoms: _440  and  _441
REMARK                            x       y       z     vdW  Elec       q    Type
REMARK                         _______ _______ _______ _____ _____    ______ ____
ROOT
ATOM      1  O   HOH     1      -8.225 -33.619 -31.362  0.00  0.00    +0.000 OA
ENDROOT
TORSDOF 0
REMARK  Name = ../refined-set-2016/1px4/1px4_pocket.pdb
REMARK  188 active torsions:
REMARK  status: ('A' for Active; 'I' for Inactive)
REMARK    1  A    between atoms: _1  and  _3
REMARK    2  A    between atoms: _3  and  _4
REMARK    3  A    between atoms: _3  and  _6
REMARK    4  A    between atoms: _6  and  _7
REMARK    5  A    between atoms: _12  and  _13
REMARK    6  A    between atoms: _15  and  _17
REMARK    7  A    between atoms: _17  and  _18
REMARK    8  A    between atoms: _17  and  _20
REMARK    9  A    between atoms: _20  and  _21
REMARK   10  A    between atoms: _26  and  _28
REMARK   11  A    between atoms: _28  and  _29
REMARK   12  A    between atoms: _28  and  _31
REMARK   13  A    between atoms: _34  and  _36
REMARK   14  A    between atoms: _36  and  _37
REMARK   15  A    between atoms: _36  and  _39
REMARK   16  A    between atoms: _39  and  _40
REMARK   17  A    between atoms: _43  and  _45
REMARK   18  A    between atoms: _45  and  _46
REMARK   19  A    between atoms: _45  and  _48
REMARK   20  A    between atoms: _48  and  _49
REMARK   21  A    between atoms: _49  and  _50
REMARK   22  A    between atoms: _55  and  _57
REMARK   23  A    between atoms: _57  and  _58
REMARK   24  A    between atoms: _57  and  _60
REMARK   25  A    between atoms: _60  and  _61
REMARK   26  A    between atoms: _64  and  _66
REMARK   27  A    between atoms: _66  and  _67
REMARK   28  A    between atoms: _66  and  _69
REMARK   29  A    between atoms: _69  and  _70
REMARK   30  A    between atoms: _70  and  _71
REMARK   31  A    between atoms: _73  and  _75
REMARK   32  A    between atoms: _75  and  _76
REMARK   33  A    between atoms: _75  and  _78
REMARK   34  A    between atoms: _78  and  _79
REMARK   35  A    between atoms: _84  and  _86
REMARK   36  A    between atoms: _86  and  _87
REMARK   37  A    between atoms: _86  and  _89
REMARK   38  A    between atoms: _89  and  _90
REMARK   39  A    between atoms: _95  and  _97
REMARK   40  A    between atoms: _97  and  _98
REMARK   41  A    between atoms: _97  and  _100
REMARK   42  A    between atoms: _100  and  _101
REMARK   43  A    between atoms: _101  and  _102
REMARK   44  A    between atoms: _102  and  _103
REMARK   45  A    between atoms: _112  and  _114
REMARK   46  A    between atoms: _114  and  _115
REMARK   47  A    between atoms: _114  and  _117
REMARK   48  A    between atoms: _117  and  _118
REMARK   49  A    between atoms: _120  and  _122
REMARK   50  A    between atoms: _122  and  _123
REMARK   51  A    between atoms: _122  and  _125
REMARK   52  A    between atoms: _125  and  _126
REMARK   53  A    between atoms: _131  and  _133
REMARK   54  A    between atoms: _133  and  _134
REMARK   55  A    between atoms: _133  and  _136
REMARK   56  A    between atoms: _136  and  _137
REMARK   57  A    between atoms: _137  and  _138
REMARK   58  A    between atoms: _141  and  _143
REMARK   59  A    between atoms: _143  and  _144
REMARK   60  A    between atoms: _143  and  _146
REMARK   61  A    between atoms: _146  and  _147
REMARK   62  A    between atoms: _152  and  _154
REMARK   63  A    between atoms: _154  and  _155
REMARK   64  A    between atoms: _154  and  _157
REMARK   65  A    between atoms: _157  and  _158
REMARK   66  A    between atoms: _158  and  _159
REMARK   67  A    between atoms: _161  and  _163
REMARK   68  A    between atoms: _163  and  _164
REMARK   69  A    between atoms: _163  and  _166
REMARK   70  A    between atoms: _166  and  _167
REMARK   71  A    between atoms: _172  and  _174
REMARK   72  A    between atoms: _174  and  _175
REMARK   73  A    between atoms: _174  and  _177
REMARK   74  A    between atoms: _177  and  _178
REMARK   75  A    between atoms: _178  and  _179
REMARK   76  A    between atoms: _179  and  _180
REMARK   77  A    between atoms: _180  and  MG_450
REMARK   78  A    between atoms: _182  and  _184
REMARK   79  A    between atoms: _184  and  _185
REMARK   80  A    between atoms: _184  and  _187
REMARK   81  A    between atoms: _187  and  _188
REMARK   82  A    between atoms: _188  and  _189
REMARK   83  A    between atoms: _192  and  _194
REMARK   84  A    between atoms: _194  and  _195
REMARK   85  A    between atoms: _194  and  _197
REMARK   86  A    between atoms: _197  and  _198
REMARK   87  A    between atoms: _198  and  _199
REMARK   88  A    between atoms: _201  and  _203
REMARK   89  A    between atoms: _203  and  _204
REMARK   90  A    between atoms: _203  and  _206
REMARK   91  A    between atoms: _206  and  _207
REMARK   92  A    between atoms: _212  and  _213
REMARK   93  A    between atoms: _215  and  _217
REMARK   94  A    between atoms: _217  and  _218
REMARK   95  A    between atoms: _217  and  _220
REMARK   96  A    between atoms: _220  and  _221
REMARK   97  A    between atoms: _221  and  _222
REMARK   98  A    between atoms: _222  and  _223
REMARK   99  A    between atoms: _223  and  _224
REMARK  100  A    between atoms: _228  and  _230
REMARK  101  A    between atoms: _230  and  _231
REMARK  102  A    between atoms: _230  and  _233
REMARK  103  A    between atoms: _235  and  _237
REMARK  104  A    between atoms: _237  and  _238
REMARK  105  A    between atoms: _237  and  _240
REMARK  106  A    between atoms: _240  and  _241
REMARK  107  A    between atoms: _241  and  _242
REMARK  108  A    between atoms: _245  and  _247
REMARK  109  A    between atoms: _247  and  _248
REMARK  110  A    between atoms: _247  and  _250
REMARK  111  A    between atoms: _250  and  _251
REMARK  112  A    between atoms: _256  and  _258
REMARK  113  A    between atoms: _258  and  _259
REMARK  114  A    between atoms: _262  and  _264
REMARK  115  A    between atoms: _264  and  _265
REMARK  116  A    between atoms: _264  and  _267
REMARK  117  A    between atoms: _267  and  _268
REMARK  118  A    between atoms: _268  and  _269
REMARK  119  A    between atoms: _271  and  _273
REMARK  120  A    between atoms: _273  and  _274
REMARK  121  A    between atoms: _273  and  _276
REMARK  122  A    between atoms: _276  and  _277
REMARK  123  A    between atoms: _287  and  _289
REMARK  124  A    between atoms: _289  and  _290
REMARK  125  A    between atoms: _289  and  _292
REMARK  126  A    between atoms: _292  and  _293
REMARK  127  A    between atoms: _296  and  _298
REMARK  128  A    between atoms: _298  and  _299
REMARK  129  A    between atoms: _298  and  _301
REMARK  130  A    between atoms: _301  and  _302
REMARK  131  A    between atoms: _302  and  _303
REMARK  132  A    between atoms: _308  and  _310
REMARK  133  A    between atoms: _310  and  _311
REMARK  134  A    between atoms: _310  and  _313
REMARK  135  A    between atoms: _313  and  _314
REMARK  136  A    between atoms: _317  and  _319
REMARK  137  A    between atoms: _319  and  _320
REMARK  138  A    between atoms: _319  and  _322
REMARK  139  A    between atoms: _322  and  _323
REMARK  140  A    between atoms: _323  and  _324
REMARK  141  A    between atoms: _329  and  _331
REMARK  142  A    between atoms: _331  and  _332
REMARK  143  A    between atoms: _331  and  _334
REMARK  144  A    between atoms: _334  and  _335
REMARK  145  A    between atoms: _341  and  _343
REMARK  146  A    between atoms: _343  and  _344
REMARK  147  A    between atoms: _343  and  _346
REMARK  148  A    between atoms: _348  and  _350
REMARK  149  A    between atoms: _350  and  _351
REMARK  150  A    between atoms: _350  and  _353
REMARK  151  A    between atoms: _353  and  _354
REMARK  152  A    between atoms: _354  and  _355
REMARK  153  A    between atoms: _357  and  _359
REMARK  154  A    between atoms: _359  and  _360
REMARK  155  A    between atoms: _359  and  _362
REMARK  156  A    between atoms: _362  and  _363
REMARK  157  A    between atoms: _368  and  _370
REMARK  158  A    between atoms: _370  and  _371
REMARK  159  A    between atoms: _374  and  _376
REMARK  160  A    between atoms: _376  and  _377
REMARK  161  A    between atoms: _376  and  _379
REMARK  162  A    between atoms: _382  and  _384
REMARK  163  A    between atoms: _384  and  _385
REMARK  164  A    between atoms: _384  and  _387
REMARK  165  A    between atoms: _387  and  _388
REMARK  166  A    between atoms: _391  and  _393
REMARK  167  A    between atoms: _393  and  _394
REMARK  168  A    between atoms: _393  and  _396
REMARK  169  A    between atoms: _396  and  _397
REMARK  170  A    between atoms: _399  and  _401
REMARK  171  A    between atoms: _401  and  _402
REMARK  172  A    between atoms: _401  and  _404
REMARK  173  A    between atoms: _404  and  _405
REMARK  174  A    between atoms: _415  and  _417
REMARK  175  A    between atoms: _417  and  _418
REMARK  176  A    between atoms: _417  and  _420
REMARK  177  A    between atoms: _420  and  _421
REMARK  178  A    between atoms: _423  and  _425
REMARK  179  A    between atoms: _425  and  _426
REMARK  180  A    between atoms: _425  and  _428
REMARK  181  A    between atoms: _428  and  _429
REMARK  182  A    between atoms: _429  and  _430
REMARK  183  A    between atoms: _433  and  _435
REMARK  184  A    between atoms: _435  and  _436
REMARK  185  A    between atoms: _435  and  _438
REMARK  186  A    between atoms: _438  and  _439
REMARK  187  A    between atoms: _439  and  _440
REMARK  188  A    between atoms: _440  and  _441
REMARK                            x       y       z     vdW  Elec       q    Type
REMARK                         _______ _______ _______ _____ _____    ______ ____
ROOT
ATOM      1  O   HOH     1     -12.991 -26.548 -21.886  0.00  0.00    +0.000 OA
ENDROOT
TORSDOF 0
REMARK  Name = ../refined-set-2016/1px4/1px4_pocket.pdb
REMARK  188 active torsions:
REMARK  status: ('A' for Active; 'I' for Inactive)
REMARK    1  A    between atoms: _1  and  _3
REMARK    2  A    between atoms: _3  and  _4
REMARK    3  A    between atoms: _3  and  _6
REMARK    4  A    between atoms: _6  and  _7
REMARK    5  A    between atoms: _12  and  _13
REMARK    6  A    between atoms: _15  and  _17
REMARK    7  A    between atoms: _17  and  _18
REMARK    8  A    between atoms: _17  and  _20
REMARK    9  A    between atoms: _20  and  _21
REMARK   10  A    between atoms: _26  and  _28
REMARK   11  A    between atoms: _28  and  _29
REMARK   12  A    between atoms: _28  and  _31
REMARK   13  A    between atoms: _34  and  _36
REMARK   14  A    between atoms: _36  and  _37
REMARK   15  A    between atoms: _36  and  _39
REMARK   16  A    between atoms: _39  and  _40
REMARK   17  A    between atoms: _43  and  _45
REMARK   18  A    between atoms: _45  and  _46
REMARK   19  A    between atoms: _45  and  _48
REMARK   20  A    between atoms: _48  and  _49
REMARK   21  A    between atoms: _49  and  _50
REMARK   22  A    between atoms: _55  and  _57
REMARK   23  A    between atoms: _57  and  _58
REMARK   24  A    between atoms: _57  and  _60
REMARK   25  A    between atoms: _60  and  _61
REMARK   26  A    between atoms: _64  and  _66
REMARK   27  A    between atoms: _66  and  _67
REMARK   28  A    between atoms: _66  and  _69
REMARK   29  A    between atoms: _69  and  _70
REMARK   30  A    between atoms: _70  and  _71
REMARK   31  A    between atoms: _73  and  _75
REMARK   32  A    between atoms: _75  and  _76
REMARK   33  A    between atoms: _75  and  _78
REMARK   34  A    between atoms: _78  and  _79
REMARK   35  A    between atoms: _84  and  _86
REMARK   36  A    between atoms: _86  and  _87
REMARK   37  A    between atoms: _86  and  _89
REMARK   38  A    between atoms: _89  and  _90
REMARK   39  A    between atoms: _95  and  _97
REMARK   40  A    between atoms: _97  and  _98
REMARK   41  A    between atoms: _97  and  _100
REMARK   42  A    between atoms: _100  and  _101
REMARK   43  A    between atoms: _101  and  _102
REMARK   44  A    between atoms: _102  and  _103
REMARK   45  A    between atoms: _112  and  _114
REMARK   46  A    between atoms: _114  and  _115
REMARK   47  A    between atoms: _114  and  _117
REMARK   48  A    between atoms: _117  and  _118
REMARK   49  A    between atoms: _120  and  _122
REMARK   50  A    between atoms: _122  and  _123
REMARK   51  A    between atoms: _122  and  _125
REMARK   52  A    between atoms: _125  and  _126
REMARK   53  A    between atoms: _131  and  _133
REMARK   54  A    between atoms: _133  and  _134
REMARK   55  A    between atoms: _133  and  _136
REMARK   56  A    between atoms: _136  and  _137
REMARK   57  A    between atoms: _137  and  _138
REMARK   58  A    between atoms: _141  and  _143
REMARK   59  A    between atoms: _143  and  _144
REMARK   60  A    between atoms: _143  and  _146
REMARK   61  A    between atoms: _146  and  _147
REMARK   62  A    between atoms: _152  and  _154
REMARK   63  A    between atoms: _154  and  _155
REMARK   64  A    between atoms: _154  and  _157
REMARK   65  A    between atoms: _157  and  _158
REMARK   66  A    between atoms: _158  and  _159
REMARK   67  A    between atoms: _161  and  _163
REMARK   68  A    between atoms: _163  and  _164
REMARK   69  A    between atoms: _163  and  _166
REMARK   70  A    between atoms: _166  and  _167
REMARK   71  A    between atoms: _172  and  _174
REMARK   72  A    between atoms: _174  and  _175
REMARK   73  A    between atoms: _174  and  _177
REMARK   74  A    between atoms: _177  and  _178
REMARK   75  A    between atoms: _178  and  _179
REMARK   76  A    between atoms: _179  and  _180
REMARK   77  A    between atoms: _180  and  MG_450
REMARK   78  A    between atoms: _182  and  _184
REMARK   79  A    between atoms: _184  and  _185
REMARK   80  A    between atoms: _184  and  _187
REMARK   81  A    between atoms: _187  and  _188
REMARK   82  A    between atoms: _188  and  _189
REMARK   83  A    between atoms: _192  and  _194
REMARK   84  A    between atoms: _194  and  _195
REMARK   85  A    between atoms: _194  and  _197
REMARK   86  A    between atoms: _197  and  _198
REMARK   87  A    between atoms: _198  and  _199
REMARK   88  A    between atoms: _201  and  _203
REMARK   89  A    between atoms: _203  and  _204
REMARK   90  A    between atoms: _203  and  _206
REMARK   91  A    between atoms: _206  and  _207
REMARK   92  A    between atoms: _212  and  _213
REMARK   93  A    between atoms: _215  and  _217
REMARK   94  A    between atoms: _217  and  _218
REMARK   95  A    between atoms: _217  and  _220
REMARK   96  A    between atoms: _220  and  _221
REMARK   97  A    between atoms: _221  and  _222
REMARK   98  A    between atoms: _222  and  _223
REMARK   99  A    between atoms: _223  and  _224
REMARK  100  A    between atoms: _228  and  _230
REMARK  101  A    between atoms: _230  and  _231
REMARK  102  A    between atoms: _230  and  _233
REMARK  103  A    between atoms: _235  and  _237
REMARK  104  A    between atoms: _237  and  _238
REMARK  105  A    between atoms: _237  and  _240
REMARK  106  A    between atoms: _240  and  _241
REMARK  107  A    between atoms: _241  and  _242
REMARK  108  A    between atoms: _245  and  _247
REMARK  109  A    between atoms: _247  and  _248
REMARK  110  A    between atoms: _247  and  _250
REMARK  111  A    between atoms: _250  and  _251
REMARK  112  A    between atoms: _256  and  _258
REMARK  113  A    between atoms: _258  and  _259
REMARK  114  A    between atoms: _262  and  _264
REMARK  115  A    between atoms: _264  and  _265
REMARK  116  A    between atoms: _264  and  _267
REMARK  117  A    between atoms: _267  and  _268
REMARK  118  A    between atoms: _268  and  _269
REMARK  119  A    between atoms: _271  and  _273
REMARK  120  A    between atoms: _273  and  _274
REMARK  121  A    between atoms: _273  and  _276
REMARK  122  A    between atoms: _276  and  _277
REMARK  123  A    between atoms: _287  and  _289
REMARK  124  A    between atoms: _289  and  _290
REMARK  125  A    between atoms: _289  and  _292
REMARK  126  A    between atoms: _292  and  _293
REMARK  127  A    between atoms: _296  and  _298
REMARK  128  A    between atoms: _298  and  _299
REMARK  129  A    between atoms: _298  and  _301
REMARK  130  A    between atoms: _301  and  _302
REMARK  131  A    between atoms: _302  and  _303
REMARK  132  A    between atoms: _308  and  _310
REMARK  133  A    between atoms: _310  and  _311
REMARK  134  A    between atoms: _310  and  _313
REMARK  135  A    between atoms: _313  and  _314
REMARK  136  A    between atoms: _317  and  _319
REMARK  137  A    between atoms: _319  and  _320
REMARK  138  A    between atoms: _319  and  _322
REMARK  139  A    between atoms: _322  and  _323
REMARK  140  A    between atoms: _323  and  _324
REMARK  141  A    between atoms: _329  and  _331
REMARK  142  A    between atoms: _331  and  _332
REMARK  143  A    between atoms: _331  and  _334
REMARK  144  A    between atoms: _334  and  _335
REMARK  145  A    between atoms: _341  and  _343
REMARK  146  A    between atoms: _343  and  _344
REMARK  147  A    between atoms: _343  and  _346
REMARK  148  A    between atoms: _348  and  _350
REMARK  149  A    between atoms: _350  and  _351
REMARK  150  A    between atoms: _350  and  _353
REMARK  151  A    between atoms: _353  and  _354
REMARK  152  A    between atoms: _354  and  _355
REMARK  153  A    between atoms: _357  and  _359
REMARK  154  A    between atoms: _359  and  _360
REMARK  155  A    between atoms: _359  and  _362
REMARK  156  A    between atoms: _362  and  _363
REMARK  157  A    between atoms: _368  and  _370
REMARK  158  A    between atoms: _370  and  _371
REMARK  159  A    between atoms: _374  and  _376
REMARK  160  A    between atoms: _376  and  _377
REMARK  161  A    between atoms: _376  and  _379
REMARK  162  A    between atoms: _382  and  _384
REMARK  163  A    between atoms: _384  and  _385
REMARK  164  A    between atoms: _384  and  _387
REMARK  165  A    between atoms: _387  and  _388
REMARK  166  A    between atoms: _391  and  _393
REMARK  167  A    between atoms: _393  and  _394
REMARK  168  A    between atoms: _393  and  _396
REMARK  169  A    between atoms: _396  and  _397
REMARK  170  A    between atoms: _399  and  _401
REMARK  171  A    between atoms: _401  and  _402
REMARK  172  A    between atoms: _401  and  _404
REMARK  173  A    between atoms: _404  and  _405
REMARK  174  A    between atoms: _415  and  _417
REMARK  175  A    between atoms: _417  and  _418
REMARK  176  A    between atoms: _417  and  _420
REMARK  177  A    between atoms: _420  and  _421
REMARK  178  A    between atoms: _423  and  _425
REMARK  179  A    between atoms: _425  and  _426
REMARK  180  A    between atoms: _425  and  _428
REMARK  181  A    between atoms: _428  and  _429
REMARK  182  A    between atoms: _429  and  _430
REMARK  183  A    between atoms: _433  and  _435
REMARK  184  A    between atoms: _435  and  _436
REMARK  185  A    between atoms: _435  and  _438
REMARK  186  A    between atoms: _438  and  _439
REMARK  187  A    between atoms: _439  and  _440
REMARK  188  A    between atoms: _440  and  _441
REMARK                            x       y       z     vdW  Elec       q    Type
REMARK                         _______ _______ _______ _____ _____    ______ ____
ROOT
ATOM      1  O   HOH     1      -8.336 -28.529 -24.639  0.00  0.00    +0.000 OA
ENDROOT
TORSDOF 0
REMARK  Name = ../refined-set-2016/1px4/1px4_pocket.pdb
REMARK  188 active torsions:
REMARK  status: ('A' for Active; 'I' for Inactive)
REMARK    1  A    between atoms: _1  and  _3
REMARK    2  A    between atoms: _3  and  _4
REMARK    3  A    between atoms: _3  and  _6
REMARK    4  A    between atoms: _6  and  _7
REMARK    5  A    between atoms: _12  and  _13
REMARK    6  A    between atoms: _15  and  _17
REMARK    7  A    between atoms: _17  and  _18
REMARK    8  A    between atoms: _17  and  _20
REMARK    9  A    between atoms: _20  and  _21
REMARK   10  A    between atoms: _26  and  _28
REMARK   11  A    between atoms: _28  and  _29
REMARK   12  A    between atoms: _28  and  _31
REMARK   13  A    between atoms: _34  and  _36
REMARK   14  A    between atoms: _36  and  _37
REMARK   15  A    between atoms: _36  and  _39
REMARK   16  A    between atoms: _39  and  _40
REMARK   17  A    between atoms: _43  and  _45
REMARK   18  A    between atoms: _45  and  _46
REMARK   19  A    between atoms: _45  and  _48
REMARK   20  A    between atoms: _48  and  _49
REMARK   21  A    between atoms: _49  and  _50
REMARK   22  A    between atoms: _55  and  _57
REMARK   23  A    between atoms: _57  and  _58
REMARK   24  A    between atoms: _57  and  _60
REMARK   25  A    between atoms: _60  and  _61
REMARK   26  A    between atoms: _64  and  _66
REMARK   27  A    between atoms: _66  and  _67
REMARK   28  A    between atoms: _66  and  _69
REMARK   29  A    between atoms: _69  and  _70
REMARK   30  A    between atoms: _70  and  _71
REMARK   31  A    between atoms: _73  and  _75
REMARK   32  A    between atoms: _75  and  _76
REMARK   33  A    between atoms: _75  and  _78
REMARK   34  A    between atoms: _78  and  _79
REMARK   35  A    between atoms: _84  and  _86
REMARK   36  A    between atoms: _86  and  _87
REMARK   37  A    between atoms: _86  and  _89
REMARK   38  A    between atoms: _89  and  _90
REMARK   39  A    between atoms: _95  and  _97
REMARK   40  A    between atoms: _97  and  _98
REMARK   41  A    between atoms: _97  and  _100
REMARK   42  A    between atoms: _100  and  _101
REMARK   43  A    between atoms: _101  and  _102
REMARK   44  A    between atoms: _102  and  _103
REMARK   45  A    between atoms: _112  and  _114
REMARK   46  A    between atoms: _114  and  _115
REMARK   47  A    between atoms: _114  and  _117
REMARK   48  A    between atoms: _117  and  _118
REMARK   49  A    between atoms: _120  and  _122
REMARK   50  A    between atoms: _122  and  _123
REMARK   51  A    between atoms: _122  and  _125
REMARK   52  A    between atoms: _125  and  _126
REMARK   53  A    between atoms: _131  and  _133
REMARK   54  A    between atoms: _133  and  _134
REMARK   55  A    between atoms: _133  and  _136
REMARK   56  A    between atoms: _136  and  _137
REMARK   57  A    between atoms: _137  and  _138
REMARK   58  A    between atoms: _141  and  _143
REMARK   59  A    between atoms: _143  and  _144
REMARK   60  A    between atoms: _143  and  _146
REMARK   61  A    between atoms: _146  and  _147
REMARK   62  A    between atoms: _152  and  _154
REMARK   63  A    between atoms: _154  and  _155
REMARK   64  A    between atoms: _154  and  _157
REMARK   65  A    between atoms: _157  and  _158
REMARK   66  A    between atoms: _158  and  _159
REMARK   67  A    between atoms: _161  and  _163
REMARK   68  A    between atoms: _163  and  _164
REMARK   69  A    between atoms: _163  and  _166
REMARK   70  A    between atoms: _166  and  _167
REMARK   71  A    between atoms: _172  and  _174
REMARK   72  A    between atoms: _174  and  _175
REMARK   73  A    between atoms: _174  and  _177
REMARK   74  A    between atoms: _177  and  _178
REMARK   75  A    between atoms: _178  and  _179
REMARK   76  A    between atoms: _179  and  _180
REMARK   77  A    between atoms: _180  and  MG_450
REMARK   78  A    between atoms: _182  and  _184
REMARK   79  A    between atoms: _184  and  _185
REMARK   80  A    between atoms: _184  and  _187
REMARK   81  A    between atoms: _187  and  _188
REMARK   82  A    between atoms: _188  and  _189
REMARK   83  A    between atoms: _192  and  _194
REMARK   84  A    between atoms: _194  and  _195
REMARK   85  A    between atoms: _194  and  _197
REMARK   86  A    between atoms: _197  and  _198
REMARK   87  A    between atoms: _198  and  _199
REMARK   88  A    between atoms: _201  and  _203
REMARK   89  A    between atoms: _203  and  _204
REMARK   90  A    between atoms: _203  and  _206
REMARK   91  A    between atoms: _206  and  _207
REMARK   92  A    between atoms: _212  and  _213
REMARK   93  A    between atoms: _215  and  _217
REMARK   94  A    between atoms: _217  and  _218
REMARK   95  A    between atoms: _217  and  _220
REMARK   96  A    between atoms: _220  and  _221
REMARK   97  A    between atoms: _221  and  _222
REMARK   98  A    between atoms: _222  and  _223
REMARK   99  A    between atoms: _223  and  _224
REMARK  100  A    between atoms: _228  and  _230
REMARK  101  A    between atoms: _230  and  _231
REMARK  102  A    between atoms: _230  and  _233
REMARK  103  A    between atoms: _235  and  _237
REMARK  104  A    between atoms: _237  and  _238
REMARK  105  A    between atoms: _237  and  _240
REMARK  106  A    between atoms: _240  and  _241
REMARK  107  A    between atoms: _241  and  _242
REMARK  108  A    between atoms: _245  and  _247
REMARK  109  A    between atoms: _247  and  _248
REMARK  110  A    between atoms: _247  and  _250
REMARK  111  A    between atoms: _250  and  _251
REMARK  112  A    between atoms: _256  and  _258
REMARK  113  A    between atoms: _258  and  _259
REMARK  114  A    between atoms: _262  and  _264
REMARK  115  A    between atoms: _264  and  _265
REMARK  116  A    between atoms: _264  and  _267
REMARK  117  A    between atoms: _267  and  _268
REMARK  118  A    between atoms: _268  and  _269
REMARK  119  A    between atoms: _271  and  _273
REMARK  120  A    between atoms: _273  and  _274
REMARK  121  A    between atoms: _273  and  _276
REMARK  122  A    between atoms: _276  and  _277
REMARK  123  A    between atoms: _287  and  _289
REMARK  124  A    between atoms: _289  and  _290
REMARK  125  A    between atoms: _289  and  _292
REMARK  126  A    between atoms: _292  and  _293
REMARK  127  A    between atoms: _296  and  _298
REMARK  128  A    between atoms: _298  and  _299
REMARK  129  A    between atoms: _298  and  _301
REMARK  130  A    between atoms: _301  and  _302
REMARK  131  A    between atoms: _302  and  _303
REMARK  132  A    between atoms: _308  and  _310
REMARK  133  A    between atoms: _310  and  _311
REMARK  134  A    between atoms: _310  and  _313
REMARK  135  A    between atoms: _313  and  _314
REMARK  136  A    between atoms: _317  and  _319
REMARK  137  A    between atoms: _319  and  _320
REMARK  138  A    between atoms: _319  and  _322
REMARK  139  A    between atoms: _322  and  _323
REMARK  140  A    between atoms: _323  and  _324
REMARK  141  A    between atoms: _329  and  _331
REMARK  142  A    between atoms: _331  and  _332
REMARK  143  A    between atoms: _331  and  _334
REMARK  144  A    between atoms: _334  and  _335
REMARK  145  A    between atoms: _341  and  _343
REMARK  146  A    between atoms: _343  and  _344
REMARK  147  A    between atoms: _343  and  _346
REMARK  148  A    between atoms: _348  and  _350
REMARK  149  A    between atoms: _350  and  _351
REMARK  150  A    between atoms: _350  and  _353
REMARK  151  A    between atoms: _353  and  _354
REMARK  152  A    between atoms: _354  and  _355
REMARK  153  A    between atoms: _357  and  _359
REMARK  154  A    between atoms: _359  and  _360
REMARK  155  A    between atoms: _359  and  _362
REMARK  156  A    between atoms: _362  and  _363
REMARK  157  A    between atoms: _368  and  _370
REMARK  158  A    between atoms: _370  and  _371
REMARK  159  A    between atoms: _374  and  _376
REMARK  160  A    between atoms: _376  and  _377
REMARK  161  A    between atoms: _376  and  _379
REMARK  162  A    between atoms: _382  and  _384
REMARK  163  A    between atoms: _384  and  _385
REMARK  164  A    between atoms: _384  and  _387
REMARK  165  A    between atoms: _387  and  _388
REMARK  166  A    between atoms: _391  and  _393
REMARK  167  A    between atoms: _393  and  _394
REMARK  168  A    between atoms: _393  and  _396
REMARK  169  A    between atoms: _396  and  _397
REMARK  170  A    between atoms: _399  and  _401
REMARK  171  A    between atoms: _401  and  _402
REMARK  172  A    between atoms: _401  and  _404
REMARK  173  A    between atoms: _404  and  _405
REMARK  174  A    between atoms: _415  and  _417
REMARK  175  A    between atoms: _417  and  _418
REMARK  176  A    between atoms: _417  and  _420
REMARK  177  A    between atoms: _420  and  _421
REMARK  178  A    between atoms: _423  and  _425
REMARK  179  A    between atoms: _425  and  _426
REMARK  180  A    between atoms: _425  and  _428
REMARK  181  A    between atoms: _428  and  _429
REMARK  182  A    between atoms: _429  and  _430
REMARK  183  A    between atoms: _433  and  _435
REMARK  184  A    between atoms: _435  and  _436
REMARK  185  A    between atoms: _435  and  _438
REMARK  186  A    between atoms: _438  and  _439
REMARK  187  A    between atoms: _439  and  _440
REMARK  188  A    between atoms: _440  and  _441
REMARK                            x       y       z     vdW  Elec       q    Type
REMARK                         _______ _______ _______ _____ _____    ______ ____
ROOT
ATOM      1  O   HOH     1     -15.345 -28.048 -22.342  0.00  0.00    +0.000 OA
ENDROOT
TORSDOF 0
REMARK  Name = ../refined-set-2016/1px4/1px4_pocket.pdb
REMARK  188 active torsions:
REMARK  status: ('A' for Active; 'I' for Inactive)
REMARK    1  A    between atoms: _1  and  _3
REMARK    2  A    between atoms: _3  and  _4
REMARK    3  A    between atoms: _3  and  _6
REMARK    4  A    between atoms: _6  and  _7
REMARK    5  A    between atoms: _12  and  _13
REMARK    6  A    between atoms: _15  and  _17
REMARK    7  A    between atoms: _17  and  _18
REMARK    8  A    between atoms: _17  and  _20
REMARK    9  A    between atoms: _20  and  _21
REMARK   10  A    between atoms: _26  and  _28
REMARK   11  A    between atoms: _28  and  _29
REMARK   12  A    between atoms: _28  and  _31
REMARK   13  A    between atoms: _34  and  _36
REMARK   14  A    between atoms: _36  and  _37
REMARK   15  A    between atoms: _36  and  _39
REMARK   16  A    between atoms: _39  and  _40
REMARK   17  A    between atoms: _43  and  _45
REMARK   18  A    between atoms: _45  and  _46
REMARK   19  A    between atoms: _45  and  _48
REMARK   20  A    between atoms: _48  and  _49
REMARK   21  A    between atoms: _49  and  _50
REMARK   22  A    between atoms: _55  and  _57
REMARK   23  A    between atoms: _57  and  _58
REMARK   24  A    between atoms: _57  and  _60
REMARK   25  A    between atoms: _60  and  _61
REMARK   26  A    between atoms: _64  and  _66
REMARK   27  A    between atoms: _66  and  _67
REMARK   28  A    between atoms: _66  and  _69
REMARK   29  A    between atoms: _69  and  _70
REMARK   30  A    between atoms: _70  and  _71
REMARK   31  A    between atoms: _73  and  _75
REMARK   32  A    between atoms: _75  and  _76
REMARK   33  A    between atoms: _75  and  _78
REMARK   34  A    between atoms: _78  and  _79
REMARK   35  A    between atoms: _84  and  _86
REMARK   36  A    between atoms: _86  and  _87
REMARK   37  A    between atoms: _86  and  _89
REMARK   38  A    between atoms: _89  and  _90
REMARK   39  A    between atoms: _95  and  _97
REMARK   40  A    between atoms: _97  and  _98
REMARK   41  A    between atoms: _97  and  _100
REMARK   42  A    between atoms: _100  and  _101
REMARK   43  A    between atoms: _101  and  _102
REMARK   44  A    between atoms: _102  and  _103
REMARK   45  A    between atoms: _112  and  _114
REMARK   46  A    between atoms: _114  and  _115
REMARK   47  A    between atoms: _114  and  _117
REMARK   48  A    between atoms: _117  and  _118
REMARK   49  A    between atoms: _120  and  _122
REMARK   50  A    between atoms: _122  and  _123
REMARK   51  A    between atoms: _122  and  _125
REMARK   52  A    between atoms: _125  and  _126
REMARK   53  A    between atoms: _131  and  _133
REMARK   54  A    between atoms: _133  and  _134
REMARK   55  A    between atoms: _133  and  _136
REMARK   56  A    between atoms: _136  and  _137
REMARK   57  A    between atoms: _137  and  _138
REMARK   58  A    between atoms: _141  and  _143
REMARK   59  A    between atoms: _143  and  _144
REMARK   60  A    between atoms: _143  and  _146
REMARK   61  A    between atoms: _146  and  _147
REMARK   62  A    between atoms: _152  and  _154
REMARK   63  A    between atoms: _154  and  _155
REMARK   64  A    between atoms: _154  and  _157
REMARK   65  A    between atoms: _157  and  _158
REMARK   66  A    between atoms: _158  and  _159
REMARK   67  A    between atoms: _161  and  _163
REMARK   68  A    between atoms: _163  and  _164
REMARK   69  A    between atoms: _163  and  _166
REMARK   70  A    between atoms: _166  and  _167
REMARK   71  A    between atoms: _172  and  _174
REMARK   72  A    between atoms: _174  and  _175
REMARK   73  A    between atoms: _174  and  _177
REMARK   74  A    between atoms: _177  and  _178
REMARK   75  A    between atoms: _178  and  _179
REMARK   76  A    between atoms: _179  and  _180
REMARK   77  A    between atoms: _180  and  MG_450
REMARK   78  A    between atoms: _182  and  _184
REMARK   79  A    between atoms: _184  and  _185
REMARK   80  A    between atoms: _184  and  _187
REMARK   81  A    between atoms: _187  and  _188
REMARK   82  A    between atoms: _188  and  _189
REMARK   83  A    between atoms: _192  and  _194
REMARK   84  A    between atoms: _194  and  _195
REMARK   85  A    between atoms: _194  and  _197
REMARK   86  A    between atoms: _197  and  _198
REMARK   87  A    between atoms: _198  and  _199
REMARK   88  A    between atoms: _201  and  _203
REMARK   89  A    between atoms: _203  and  _204
REMARK   90  A    between atoms: _203  and  _206
REMARK   91  A    between atoms: _206  and  _207
REMARK   92  A    between atoms: _212  and  _213
REMARK   93  A    between atoms: _215  and  _217
REMARK   94  A    between atoms: _217  and  _218
REMARK   95  A    between atoms: _217  and  _220
REMARK   96  A    between atoms: _220  and  _221
REMARK   97  A    between atoms: _221  and  _222
REMARK   98  A    between atoms: _222  and  _223
REMARK   99  A    between atoms: _223  and  _224
REMARK  100  A    between atoms: _228  and  _230
REMARK  101  A    between atoms: _230  and  _231
REMARK  102  A    between atoms: _230  and  _233
REMARK  103  A    between atoms: _235  and  _237
REMARK  104  A    between atoms: _237  and  _238
REMARK  105  A    between atoms: _237  and  _240
REMARK  106  A    between atoms: _240  and  _241
REMARK  107  A    between atoms: _241  and  _242
REMARK  108  A    between atoms: _245  and  _247
REMARK  109  A    between atoms: _247  and  _248
REMARK  110  A    between atoms: _247  and  _250
REMARK  111  A    between atoms: _250  and  _251
REMARK  112  A    between atoms: _256  and  _258
REMARK  113  A    between atoms: _258  and  _259
REMARK  114  A    between atoms: _262  and  _264
REMARK  115  A    between atoms: _264  and  _265
REMARK  116  A    between atoms: _264  and  _267
REMARK  117  A    between atoms: _267  and  _268
REMARK  118  A    between atoms: _268  and  _269
REMARK  119  A    between atoms: _271  and  _273
REMARK  120  A    between atoms: _273  and  _274
REMARK  121  A    between atoms: _273  and  _276
REMARK  122  A    between atoms: _276  and  _277
REMARK  123  A    between atoms: _287  and  _289
REMARK  124  A    between atoms: _289  and  _290
REMARK  125  A    between atoms: _289  and  _292
REMARK  126  A    between atoms: _292  and  _293
REMARK  127  A    between atoms: _296  and  _298
REMARK  128  A    between atoms: _298  and  _299
REMARK  129  A    between atoms: _298  and  _301
REMARK  130  A    between atoms: _301  and  _302
REMARK  131  A    between atoms: _302  and  _303
REMARK  132  A    between atoms: _308  and  _310
REMARK  133  A    between atoms: _310  and  _311
REMARK  134  A    between atoms: _310  and  _313
REMARK  135  A    between atoms: _313  and  _314
REMARK  136  A    between atoms: _317  and  _319
REMARK  137  A    between atoms: _319  and  _320
REMARK  138  A    between atoms: _319  and  _322
REMARK  139  A    between atoms: _322  and  _323
REMARK  140  A    between atoms: _323  and  _324
REMARK  141  A    between atoms: _329  and  _331
REMARK  142  A    between atoms: _331  and  _332
REMARK  143  A    between atoms: _331  and  _334
REMARK  144  A    between atoms: _334  and  _335
REMARK  145  A    between atoms: _341  and  _343
REMARK  146  A    between atoms: _343  and  _344
REMARK  147  A    between atoms: _343  and  _346
REMARK  148  A    between atoms: _348  and  _350
REMARK  149  A    between atoms: _350  and  _351
REMARK  150  A    between atoms: _350  and  _353
REMARK  151  A    between atoms: _353  and  _354
REMARK  152  A    between atoms: _354  and  _355
REMARK  153  A    between atoms: _357  and  _359
REMARK  154  A    between atoms: _359  and  _360
REMARK  155  A    between atoms: _359  and  _362
REMARK  156  A    between atoms: _362  and  _363
REMARK  157  A    between atoms: _368  and  _370
REMARK  158  A    between atoms: _370  and  _371
REMARK  159  A    between atoms: _374  and  _376
REMARK  160  A    between atoms: _376  and  _377
REMARK  161  A    between atoms: _376  and  _379
REMARK  162  A    between atoms: _382  and  _384
REMARK  163  A    between atoms: _384  and  _385
REMARK  164  A    between atoms: _384  and  _387
REMARK  165  A    between atoms: _387  and  _388
REMARK  166  A    between atoms: _391  and  _393
REMARK  167  A    between atoms: _393  and  _394
REMARK  168  A    between atoms: _393  and  _396
REMARK  169  A    between atoms: _396  and  _397
REMARK  170  A    between atoms: _399  and  _401
REMARK  171  A    between atoms: _401  and  _402
REMARK  172  A    between atoms: _401  and  _404
REMARK  173  A    between atoms: _404  and  _405
REMARK  174  A    between atoms: _415  and  _417
REMARK  175  A    between atoms: _417  and  _418
REMARK  176  A    between atoms: _417  and  _420
REMARK  177  A    between atoms: _420  and  _421
REMARK  178  A    between atoms: _423  and  _425
REMARK  179  A    between atoms: _425  and  _426
REMARK  180  A    between atoms: _425  and  _428
REMARK  181  A    between atoms: _428  and  _429
REMARK  182  A    between atoms: _429  and  _430
REMARK  183  A    between atoms: _433  and  _435
REMARK  184  A    between atoms: _435  and  _436
REMARK  185  A    between atoms: _435  and  _438
REMARK  186  A    between atoms: _438  and  _439
REMARK  187  A    between atoms: _439  and  _440
REMARK  188  A    between atoms: _440  and  _441
REMARK                            x       y       z     vdW  Elec       q    Type
REMARK                         _______ _______ _______ _____ _____    ______ ____
ROOT
ATOM      1  O   HOH     1     -16.863 -23.039 -26.322  0.00  0.00    +0.000 OA
ENDROOT
TORSDOF 0
REMARK  Name = ../refined-set-2016/1px4/1px4_pocket.pdb
REMARK  188 active torsions:
REMARK  status: ('A' for Active; 'I' for Inactive)
REMARK    1  A    between atoms: _1  and  _3
REMARK    2  A    between atoms: _3  and  _4
REMARK    3  A    between atoms: _3  and  _6
REMARK    4  A    between atoms: _6  and  _7
REMARK    5  A    between atoms: _12  and  _13
REMARK    6  A    between atoms: _15  and  _17
REMARK    7  A    between atoms: _17  and  _18
REMARK    8  A    between atoms: _17  and  _20
REMARK    9  A    between atoms: _20  and  _21
REMARK   10  A    between atoms: _26  and  _28
REMARK   11  A    between atoms: _28  and  _29
REMARK   12  A    between atoms: _28  and  _31
REMARK   13  A    between atoms: _34  and  _36
REMARK   14  A    between atoms: _36  and  _37
REMARK   15  A    between atoms: _36  and  _39
REMARK   16  A    between atoms: _39  and  _40
REMARK   17  A    between atoms: _43  and  _45
REMARK   18  A    between atoms: _45  and  _46
REMARK   19  A    between atoms: _45  and  _48
REMARK   20  A    between atoms: _48  and  _49
REMARK   21  A    between atoms: _49  and  _50
REMARK   22  A    between atoms: _55  and  _57
REMARK   23  A    between atoms: _57  and  _58
REMARK   24  A    between atoms: _57  and  _60
REMARK   25  A    between atoms: _60  and  _61
REMARK   26  A    between atoms: _64  and  _66
REMARK   27  A    between atoms: _66  and  _67
REMARK   28  A    between atoms: _66  and  _69
REMARK   29  A    between atoms: _69  and  _70
REMARK   30  A    between atoms: _70  and  _71
REMARK   31  A    between atoms: _73  and  _75
REMARK   32  A    between atoms: _75  and  _76
REMARK   33  A    between atoms: _75  and  _78
REMARK   34  A    between atoms: _78  and  _79
REMARK   35  A    between atoms: _84  and  _86
REMARK   36  A    between atoms: _86  and  _87
REMARK   37  A    between atoms: _86  and  _89
REMARK   38  A    between atoms: _89  and  _90
REMARK   39  A    between atoms: _95  and  _97
REMARK   40  A    between atoms: _97  and  _98
REMARK   41  A    between atoms: _97  and  _100
REMARK   42  A    between atoms: _100  and  _101
REMARK   43  A    between atoms: _101  and  _102
REMARK   44  A    between atoms: _102  and  _103
REMARK   45  A    between atoms: _112  and  _114
REMARK   46  A    between atoms: _114  and  _115
REMARK   47  A    between atoms: _114  and  _117
REMARK   48  A    between atoms: _117  and  _118
REMARK   49  A    between atoms: _120  and  _122
REMARK   50  A    between atoms: _122  and  _123
REMARK   51  A    between atoms: _122  and  _125
REMARK   52  A    between atoms: _125  and  _126
REMARK   53  A    between atoms: _131  and  _133
REMARK   54  A    between atoms: _133  and  _134
REMARK   55  A    between atoms: _133  and  _136
REMARK   56  A    between atoms: _136  and  _137
REMARK   57  A    between atoms: _137  and  _138
REMARK   58  A    between atoms: _141  and  _143
REMARK   59  A    between atoms: _143  and  _144
REMARK   60  A    between atoms: _143  and  _146
REMARK   61  A    between atoms: _146  and  _147
REMARK   62  A    between atoms: _152  and  _154
REMARK   63  A    between atoms: _154  and  _155
REMARK   64  A    between atoms: _154  and  _157
REMARK   65  A    between atoms: _157  and  _158
REMARK   66  A    between atoms: _158  and  _159
REMARK   67  A    between atoms: _161  and  _163
REMARK   68  A    between atoms: _163  and  _164
REMARK   69  A    between atoms: _163  and  _166
REMARK   70  A    between atoms: _166  and  _167
REMARK   71  A    between atoms: _172  and  _174
REMARK   72  A    between atoms: _174  and  _175
REMARK   73  A    between atoms: _174  and  _177
REMARK   74  A    between atoms: _177  and  _178
REMARK   75  A    between atoms: _178  and  _179
REMARK   76  A    between atoms: _179  and  _180
REMARK   77  A    between atoms: _180  and  MG_450
REMARK   78  A    between atoms: _182  and  _184
REMARK   79  A    between atoms: _184  and  _185
REMARK   80  A    between atoms: _184  and  _187
REMARK   81  A    between atoms: _187  and  _188
REMARK   82  A    between atoms: _188  and  _189
REMARK   83  A    between atoms: _192  and  _194
REMARK   84  A    between atoms: _194  and  _195
REMARK   85  A    between atoms: _194  and  _197
REMARK   86  A    between atoms: _197  and  _198
REMARK   87  A    between atoms: _198  and  _199
REMARK   88  A    between atoms: _201  and  _203
REMARK   89  A    between atoms: _203  and  _204
REMARK   90  A    between atoms: _203  and  _206
REMARK   91  A    between atoms: _206  and  _207
REMARK   92  A    between atoms: _212  and  _213
REMARK   93  A    between atoms: _215  and  _217
REMARK   94  A    between atoms: _217  and  _218
REMARK   95  A    between atoms: _217  and  _220
REMARK   96  A    between atoms: _220  and  _221
REMARK   97  A    between atoms: _221  and  _222
REMARK   98  A    between atoms: _222  and  _223
REMARK   99  A    between atoms: _223  and  _224
REMARK  100  A    between atoms: _228  and  _230
REMARK  101  A    between atoms: _230  and  _231
REMARK  102  A    between atoms: _230  and  _233
REMARK  103  A    between atoms: _235  and  _237
REMARK  104  A    between atoms: _237  and  _238
REMARK  105  A    between atoms: _237  and  _240
REMARK  106  A    between atoms: _240  and  _241
REMARK  107  A    between atoms: _241  and  _242
REMARK  108  A    between atoms: _245  and  _247
REMARK  109  A    between atoms: _247  and  _248
REMARK  110  A    between atoms: _247  and  _250
REMARK  111  A    between atoms: _250  and  _251
REMARK  112  A    between atoms: _256  and  _258
REMARK  113  A    between atoms: _258  and  _259
REMARK  114  A    between atoms: _262  and  _264
REMARK  115  A    between atoms: _264  and  _265
REMARK  116  A    between atoms: _264  and  _267
REMARK  117  A    between atoms: _267  and  _268
REMARK  118  A    between atoms: _268  and  _269
REMARK  119  A    between atoms: _271  and  _273
REMARK  120  A    between atoms: _273  and  _274
REMARK  121  A    between atoms: _273  and  _276
REMARK  122  A    between atoms: _276  and  _277
REMARK  123  A    between atoms: _287  and  _289
REMARK  124  A    between atoms: _289  and  _290
REMARK  125  A    between atoms: _289  and  _292
REMARK  126  A    between atoms: _292  and  _293
REMARK  127  A    between atoms: _296  and  _298
REMARK  128  A    between atoms: _298  and  _299
REMARK  129  A    between atoms: _298  and  _301
REMARK  130  A    between atoms: _301  and  _302
REMARK  131  A    between atoms: _302  and  _303
REMARK  132  A    between atoms: _308  and  _310
REMARK  133  A    between atoms: _310  and  _311
REMARK  134  A    between atoms: _310  and  _313
REMARK  135  A    between atoms: _313  and  _314
REMARK  136  A    between atoms: _317  and  _319
REMARK  137  A    between atoms: _319  and  _320
REMARK  138  A    between atoms: _319  and  _322
REMARK  139  A    between atoms: _322  and  _323
REMARK  140  A    between atoms: _323  and  _324
REMARK  141  A    between atoms: _329  and  _331
REMARK  142  A    between atoms: _331  and  _332
REMARK  143  A    between atoms: _331  and  _334
REMARK  144  A    between atoms: _334  and  _335
REMARK  145  A    between atoms: _341  and  _343
REMARK  146  A    between atoms: _343  and  _344
REMARK  147  A    between atoms: _343  and  _346
REMARK  148  A    between atoms: _348  and  _350
REMARK  149  A    between atoms: _350  and  _351
REMARK  150  A    between atoms: _350  and  _353
REMARK  151  A    between atoms: _353  and  _354
REMARK  152  A    between atoms: _354  and  _355
REMARK  153  A    between atoms: _357  and  _359
REMARK  154  A    between atoms: _359  and  _360
REMARK  155  A    between atoms: _359  and  _362
REMARK  156  A    between atoms: _362  and  _363
REMARK  157  A    between atoms: _368  and  _370
REMARK  158  A    between atoms: _370  and  _371
REMARK  159  A    between atoms: _374  and  _376
REMARK  160  A    between atoms: _376  and  _377
REMARK  161  A    between atoms: _376  and  _379
REMARK  162  A    between atoms: _382  and  _384
REMARK  163  A    between atoms: _384  and  _385
REMARK  164  A    between atoms: _384  and  _387
REMARK  165  A    between atoms: _387  and  _388
REMARK  166  A    between atoms: _391  and  _393
REMARK  167  A    between atoms: _393  and  _394
REMARK  168  A    between atoms: _393  and  _396
REMARK  169  A    between atoms: _396  and  _397
REMARK  170  A    between atoms: _399  and  _401
REMARK  171  A    between atoms: _401  and  _402
REMARK  172  A    between atoms: _401  and  _404
REMARK  173  A    between atoms: _404  and  _405
REMARK  174  A    between atoms: _415  and  _417
REMARK  175  A    between atoms: _417  and  _418
REMARK  176  A    between atoms: _417  and  _420
REMARK  177  A    between atoms: _420  and  _421
REMARK  178  A    between atoms: _423  and  _425
REMARK  179  A    between atoms: _425  and  _426
REMARK  180  A    between atoms: _425  and  _428
REMARK  181  A    between atoms: _428  and  _429
REMARK  182  A    between atoms: _429  and  _430
REMARK  183  A    between atoms: _433  and  _435
REMARK  184  A    between atoms: _435  and  _436
REMARK  185  A    between atoms: _435  and  _438
REMARK  186  A    between atoms: _438  and  _439
REMARK  187  A    between atoms: _439  and  _440
REMARK  188  A    between atoms: _440  and  _441
REMARK                            x       y       z     vdW  Elec       q    Type
REMARK                         _______ _______ _______ _____ _____    ______ ____
ROOT
ATOM      1  O   HOH     1     -17.193 -21.039 -27.545  0.00  0.00    +0.000 OA
ENDROOT
TORSDOF 0
REMARK  Name = ../refined-set-2016/1px4/1px4_pocket.pdb
REMARK  188 active torsions:
REMARK  status: ('A' for Active; 'I' for Inactive)
REMARK    1  A    between atoms: _1  and  _3
REMARK    2  A    between atoms: _3  and  _4
REMARK    3  A    between atoms: _3  and  _6
REMARK    4  A    between atoms: _6  and  _7
REMARK    5  A    between atoms: _12  and  _13
REMARK    6  A    between atoms: _15  and  _17
REMARK    7  A    between atoms: _17  and  _18
REMARK    8  A    between atoms: _17  and  _20
REMARK    9  A    between atoms: _20  and  _21
REMARK   10  A    between atoms: _26  and  _28
REMARK   11  A    between atoms: _28  and  _29
REMARK   12  A    between atoms: _28  and  _31
REMARK   13  A    between atoms: _34  and  _36
REMARK   14  A    between atoms: _36  and  _37
REMARK   15  A    between atoms: _36  and  _39
REMARK   16  A    between atoms: _39  and  _40
REMARK   17  A    between atoms: _43  and  _45
REMARK   18  A    between atoms: _45  and  _46
REMARK   19  A    between atoms: _45  and  _48
REMARK   20  A    between atoms: _48  and  _49
REMARK   21  A    between atoms: _49  and  _50
REMARK   22  A    between atoms: _55  and  _57
REMARK   23  A    between atoms: _57  and  _58
REMARK   24  A    between atoms: _57  and  _60
REMARK   25  A    between atoms: _60  and  _61
REMARK   26  A    between atoms: _64  and  _66
REMARK   27  A    between atoms: _66  and  _67
REMARK   28  A    between atoms: _66  and  _69
REMARK   29  A    between atoms: _69  and  _70
REMARK   30  A    between atoms: _70  and  _71
REMARK   31  A    between atoms: _73  and  _75
REMARK   32  A    between atoms: _75  and  _76
REMARK   33  A    between atoms: _75  and  _78
REMARK   34  A    between atoms: _78  and  _79
REMARK   35  A    between atoms: _84  and  _86
REMARK   36  A    between atoms: _86  and  _87
REMARK   37  A    between atoms: _86  and  _89
REMARK   38  A    between atoms: _89  and  _90
REMARK   39  A    between atoms: _95  and  _97
REMARK   40  A    between atoms: _97  and  _98
REMARK   41  A    between atoms: _97  and  _100
REMARK   42  A    between atoms: _100  and  _101
REMARK   43  A    between atoms: _101  and  _102
REMARK   44  A    between atoms: _102  and  _103
REMARK   45  A    between atoms: _112  and  _114
REMARK   46  A    between atoms: _114  and  _115
REMARK   47  A    between atoms: _114  and  _117
REMARK   48  A    between atoms: _117  and  _118
REMARK   49  A    between atoms: _120  and  _122
REMARK   50  A    between atoms: _122  and  _123
REMARK   51  A    between atoms: _122  and  _125
REMARK   52  A    between atoms: _125  and  _126
REMARK   53  A    between atoms: _131  and  _133
REMARK   54  A    between atoms: _133  and  _134
REMARK   55  A    between atoms: _133  and  _136
REMARK   56  A    between atoms: _136  and  _137
REMARK   57  A    between atoms: _137  and  _138
REMARK   58  A    between atoms: _141  and  _143
REMARK   59  A    between atoms: _143  and  _144
REMARK   60  A    between atoms: _143  and  _146
REMARK   61  A    between atoms: _146  and  _147
REMARK   62  A    between atoms: _152  and  _154
REMARK   63  A    between atoms: _154  and  _155
REMARK   64  A    between atoms: _154  and  _157
REMARK   65  A    between atoms: _157  and  _158
REMARK   66  A    between atoms: _158  and  _159
REMARK   67  A    between atoms: _161  and  _163
REMARK   68  A    between atoms: _163  and  _164
REMARK   69  A    between atoms: _163  and  _166
REMARK   70  A    between atoms: _166  and  _167
REMARK   71  A    between atoms: _172  and  _174
REMARK   72  A    between atoms: _174  and  _175
REMARK   73  A    between atoms: _174  and  _177
REMARK   74  A    between atoms: _177  and  _178
REMARK   75  A    between atoms: _178  and  _179
REMARK   76  A    between atoms: _179  and  _180
REMARK   77  A    between atoms: _180  and  MG_450
REMARK   78  A    between atoms: _182  and  _184
REMARK   79  A    between atoms: _184  and  _185
REMARK   80  A    between atoms: _184  and  _187
REMARK   81  A    between atoms: _187  and  _188
REMARK   82  A    between atoms: _188  and  _189
REMARK   83  A    between atoms: _192  and  _194
REMARK   84  A    between atoms: _194  and  _195
REMARK   85  A    between atoms: _194  and  _197
REMARK   86  A    between atoms: _197  and  _198
REMARK   87  A    between atoms: _198  and  _199
REMARK   88  A    between atoms: _201  and  _203
REMARK   89  A    between atoms: _203  and  _204
REMARK   90  A    between atoms: _203  and  _206
REMARK   91  A    between atoms: _206  and  _207
REMARK   92  A    between atoms: _212  and  _213
REMARK   93  A    between atoms: _215  and  _217
REMARK   94  A    between atoms: _217  and  _218
REMARK   95  A    between atoms: _217  and  _220
REMARK   96  A    between atoms: _220  and  _221
REMARK   97  A    between atoms: _221  and  _222
REMARK   98  A    between atoms: _222  and  _223
REMARK   99  A    between atoms: _223  and  _224
REMARK  100  A    between atoms: _228  and  _230
REMARK  101  A    between atoms: _230  and  _231
REMARK  102  A    between atoms: _230  and  _233
REMARK  103  A    between atoms: _235  and  _237
REMARK  104  A    between atoms: _237  and  _238
REMARK  105  A    between atoms: _237  and  _240
REMARK  106  A    between atoms: _240  and  _241
REMARK  107  A    between atoms: _241  and  _242
REMARK  108  A    between atoms: _245  and  _247
REMARK  109  A    between atoms: _247  and  _248
REMARK  110  A    between atoms: _247  and  _250
REMARK  111  A    between atoms: _250  and  _251
REMARK  112  A    between atoms: _256  and  _258
REMARK  113  A    between atoms: _258  and  _259
REMARK  114  A    between atoms: _262  and  _264
REMARK  115  A    between atoms: _264  and  _265
REMARK  116  A    between atoms: _264  and  _267
REMARK  117  A    between atoms: _267  and  _268
REMARK  118  A    between atoms: _268  and  _269
REMARK  119  A    between atoms: _271  and  _273
REMARK  120  A    between atoms: _273  and  _274
REMARK  121  A    between atoms: _273  and  _276
REMARK  122  A    between atoms: _276  and  _277
REMARK  123  A    between atoms: _287  and  _289
REMARK  124  A    between atoms: _289  and  _290
REMARK  125  A    between atoms: _289  and  _292
REMARK  126  A    between atoms: _292  and  _293
REMARK  127  A    between atoms: _296  and  _298
REMARK  128  A    between atoms: _298  and  _299
REMARK  129  A    between atoms: _298  and  _301
REMARK  130  A    between atoms: _301  and  _302
REMARK  131  A    between atoms: _302  and  _303
REMARK  132  A    between atoms: _308  and  _310
REMARK  133  A    between atoms: _310  and  _311
REMARK  134  A    between atoms: _310  and  _313
REMARK  135  A    between atoms: _313  and  _314
REMARK  136  A    between atoms: _317  and  _319
REMARK  137  A    between atoms: _319  and  _320
REMARK  138  A    between atoms: _319  and  _322
REMARK  139  A    between atoms: _322  and  _323
REMARK  140  A    between atoms: _323  and  _324
REMARK  141  A    between atoms: _329  and  _331
REMARK  142  A    between atoms: _331  and  _332
REMARK  143  A    between atoms: _331  and  _334
REMARK  144  A    between atoms: _334  and  _335
REMARK  145  A    between atoms: _341  and  _343
REMARK  146  A    between atoms: _343  and  _344
REMARK  147  A    between atoms: _343  and  _346
REMARK  148  A    between atoms: _348  and  _350
REMARK  149  A    between atoms: _350  and  _351
REMARK  150  A    between atoms: _350  and  _353
REMARK  151  A    between atoms: _353  and  _354
REMARK  152  A    between atoms: _354  and  _355
REMARK  153  A    between atoms: _357  and  _359
REMARK  154  A    between atoms: _359  and  _360
REMARK  155  A    between atoms: _359  and  _362
REMARK  156  A    between atoms: _362  and  _363
REMARK  157  A    between atoms: _368  and  _370
REMARK  158  A    between atoms: _370  and  _371
REMARK  159  A    between atoms: _374  and  _376
REMARK  160  A    between atoms: _376  and  _377
REMARK  161  A    between atoms: _376  and  _379
REMARK  162  A    between atoms: _382  and  _384
REMARK  163  A    between atoms: _384  and  _385
REMARK  164  A    between atoms: _384  and  _387
REMARK  165  A    between atoms: _387  and  _388
REMARK  166  A    between atoms: _391  and  _393
REMARK  167  A    between atoms: _393  and  _394
REMARK  168  A    between atoms: _393  and  _396
REMARK  169  A    between atoms: _396  and  _397
REMARK  170  A    between atoms: _399  and  _401
REMARK  171  A    between atoms: _401  and  _402
REMARK  172  A    between atoms: _401  and  _404
REMARK  173  A    between atoms: _404  and  _405
REMARK  174  A    between atoms: _415  and  _417
REMARK  175  A    between atoms: _417  and  _418
REMARK  176  A    between atoms: _417  and  _420
REMARK  177  A    between atoms: _420  and  _421
REMARK  178  A    between atoms: _423  and  _425
REMARK  179  A    between atoms: _425  and  _426
REMARK  180  A    between atoms: _425  and  _428
REMARK  181  A    between atoms: _428  and  _429
REMARK  182  A    between atoms: _429  and  _430
REMARK  183  A    between atoms: _433  and  _435
REMARK  184  A    between atoms: _435  and  _436
REMARK  185  A    between atoms: _435  and  _438
REMARK  186  A    between atoms: _438  and  _439
REMARK  187  A    between atoms: _439  and  _440
REMARK  188  A    between atoms: _440  and  _441
REMARK                            x       y       z     vdW  Elec       q    Type
REMARK                         _______ _______ _______ _____ _____    ______ ____
ROOT
ATOM      1  O   HOH     1     -21.614 -34.330 -32.165  0.00  0.00    +0.000 OA
ENDROOT
TORSDOF 0
REMARK  Name = ../refined-set-2016/1px4/1px4_pocket.pdb
REMARK  188 active torsions:
REMARK  status: ('A' for Active; 'I' for Inactive)
REMARK    1  A    between atoms: _1  and  _3
REMARK    2  A    between atoms: _3  and  _4
REMARK    3  A    between atoms: _3  and  _6
REMARK    4  A    between atoms: _6  and  _7
REMARK    5  A    between atoms: _12  and  _13
REMARK    6  A    between atoms: _15  and  _17
REMARK    7  A    between atoms: _17  and  _18
REMARK    8  A    between atoms: _17  and  _20
REMARK    9  A    between atoms: _20  and  _21
REMARK   10  A    between atoms: _26  and  _28
REMARK   11  A    between atoms: _28  and  _29
REMARK   12  A    between atoms: _28  and  _31
REMARK   13  A    between atoms: _34  and  _36
REMARK   14  A    between atoms: _36  and  _37
REMARK   15  A    between atoms: _36  and  _39
REMARK   16  A    between atoms: _39  and  _40
REMARK   17  A    between atoms: _43  and  _45
REMARK   18  A    between atoms: _45  and  _46
REMARK   19  A    between atoms: _45  and  _48
REMARK   20  A    between atoms: _48  and  _49
REMARK   21  A    between atoms: _49  and  _50
REMARK   22  A    between atoms: _55  and  _57
REMARK   23  A    between atoms: _57  and  _58
REMARK   24  A    between atoms: _57  and  _60
REMARK   25  A    between atoms: _60  and  _61
REMARK   26  A    between atoms: _64  and  _66
REMARK   27  A    between atoms: _66  and  _67
REMARK   28  A    between atoms: _66  and  _69
REMARK   29  A    between atoms: _69  and  _70
REMARK   30  A    between atoms: _70  and  _71
REMARK   31  A    between atoms: _73  and  _75
REMARK   32  A    between atoms: _75  and  _76
REMARK   33  A    between atoms: _75  and  _78
REMARK   34  A    between atoms: _78  and  _79
REMARK   35  A    between atoms: _84  and  _86
REMARK   36  A    between atoms: _86  and  _87
REMARK   37  A    between atoms: _86  and  _89
REMARK   38  A    between atoms: _89  and  _90
REMARK   39  A    between atoms: _95  and  _97
REMARK   40  A    between atoms: _97  and  _98
REMARK   41  A    between atoms: _97  and  _100
REMARK   42  A    between atoms: _100  and  _101
REMARK   43  A    between atoms: _101  and  _102
REMARK   44  A    between atoms: _102  and  _103
REMARK   45  A    between atoms: _112  and  _114
REMARK   46  A    between atoms: _114  and  _115
REMARK   47  A    between atoms: _114  and  _117
REMARK   48  A    between atoms: _117  and  _118
REMARK   49  A    between atoms: _120  and  _122
REMARK   50  A    between atoms: _122  and  _123
REMARK   51  A    between atoms: _122  and  _125
REMARK   52  A    between atoms: _125  and  _126
REMARK   53  A    between atoms: _131  and  _133
REMARK   54  A    between atoms: _133  and  _134
REMARK   55  A    between atoms: _133  and  _136
REMARK   56  A    between atoms: _136  and  _137
REMARK   57  A    between atoms: _137  and  _138
REMARK   58  A    between atoms: _141  and  _143
REMARK   59  A    between atoms: _143  and  _144
REMARK   60  A    between atoms: _143  and  _146
REMARK   61  A    between atoms: _146  and  _147
REMARK   62  A    between atoms: _152  and  _154
REMARK   63  A    between atoms: _154  and  _155
REMARK   64  A    between atoms: _154  and  _157
REMARK   65  A    between atoms: _157  and  _158
REMARK   66  A    between atoms: _158  and  _159
REMARK   67  A    between atoms: _161  and  _163
REMARK   68  A    between atoms: _163  and  _164
REMARK   69  A    between atoms: _163  and  _166
REMARK   70  A    between atoms: _166  and  _167
REMARK   71  A    between atoms: _172  and  _174
REMARK   72  A    between atoms: _174  and  _175
REMARK   73  A    between atoms: _174  and  _177
REMARK   74  A    between atoms: _177  and  _178
REMARK   75  A    between atoms: _178  and  _179
REMARK   76  A    between atoms: _179  and  _180
REMARK   77  A    between atoms: _180  and  MG_450
REMARK   78  A    between atoms: _182  and  _184
REMARK   79  A    between atoms: _184  and  _185
REMARK   80  A    between atoms: _184  and  _187
REMARK   81  A    between atoms: _187  and  _188
REMARK   82  A    between atoms: _188  and  _189
REMARK   83  A    between atoms: _192  and  _194
REMARK   84  A    between atoms: _194  and  _195
REMARK   85  A    between atoms: _194  and  _197
REMARK   86  A    between atoms: _197  and  _198
REMARK   87  A    between atoms: _198  and  _199
REMARK   88  A    between atoms: _201  and  _203
REMARK   89  A    between atoms: _203  and  _204
REMARK   90  A    between atoms: _203  and  _206
REMARK   91  A    between atoms: _206  and  _207
REMARK   92  A    between atoms: _212  and  _213
REMARK   93  A    between atoms: _215  and  _217
REMARK   94  A    between atoms: _217  and  _218
REMARK   95  A    between atoms: _217  and  _220
REMARK   96  A    between atoms: _220  and  _221
REMARK   97  A    between atoms: _221  and  _222
REMARK   98  A    between atoms: _222  and  _223
REMARK   99  A    between atoms: _223  and  _224
REMARK  100  A    between atoms: _228  and  _230
REMARK  101  A    between atoms: _230  and  _231
REMARK  102  A    between atoms: _230  and  _233
REMARK  103  A    between atoms: _235  and  _237
REMARK  104  A    between atoms: _237  and  _238
REMARK  105  A    between atoms: _237  and  _240
REMARK  106  A    between atoms: _240  and  _241
REMARK  107  A    between atoms: _241  and  _242
REMARK  108  A    between atoms: _245  and  _247
REMARK  109  A    between atoms: _247  and  _248
REMARK  110  A    between atoms: _247  and  _250
REMARK  111  A    between atoms: _250  and  _251
REMARK  112  A    between atoms: _256  and  _258
REMARK  113  A    between atoms: _258  and  _259
REMARK  114  A    between atoms: _262  and  _264
REMARK  115  A    between atoms: _264  and  _265
REMARK  116  A    between atoms: _264  and  _267
REMARK  117  A    between atoms: _267  and  _268
REMARK  118  A    between atoms: _268  and  _269
REMARK  119  A    between atoms: _271  and  _273
REMARK  120  A    between atoms: _273  and  _274
REMARK  121  A    between atoms: _273  and  _276
REMARK  122  A    between atoms: _276  and  _277
REMARK  123  A    between atoms: _287  and  _289
REMARK  124  A    between atoms: _289  and  _290
REMARK  125  A    between atoms: _289  and  _292
REMARK  126  A    between atoms: _292  and  _293
REMARK  127  A    between atoms: _296  and  _298
REMARK  128  A    between atoms: _298  and  _299
REMARK  129  A    between atoms: _298  and  _301
REMARK  130  A    between atoms: _301  and  _302
REMARK  131  A    between atoms: _302  and  _303
REMARK  132  A    between atoms: _308  and  _310
REMARK  133  A    between atoms: _310  and  _311
REMARK  134  A    between atoms: _310  and  _313
REMARK  135  A    between atoms: _313  and  _314
REMARK  136  A    between atoms: _317  and  _319
REMARK  137  A    between atoms: _319  and  _320
REMARK  138  A    between atoms: _319  and  _322
REMARK  139  A    between atoms: _322  and  _323
REMARK  140  A    between atoms: _323  and  _324
REMARK  141  A    between atoms: _329  and  _331
REMARK  142  A    between atoms: _331  and  _332
REMARK  143  A    between atoms: _331  and  _334
REMARK  144  A    between atoms: _334  and  _335
REMARK  145  A    between atoms: _341  and  _343
REMARK  146  A    between atoms: _343  and  _344
REMARK  147  A    between atoms: _343  and  _346
REMARK  148  A    between atoms: _348  and  _350
REMARK  149  A    between atoms: _350  and  _351
REMARK  150  A    between atoms: _350  and  _353
REMARK  151  A    between atoms: _353  and  _354
REMARK  152  A    between atoms: _354  and  _355
REMARK  153  A    between atoms: _357  and  _359
REMARK  154  A    between atoms: _359  and  _360
REMARK  155  A    between atoms: _359  and  _362
REMARK  156  A    between atoms: _362  and  _363
REMARK  157  A    between atoms: _368  and  _370
REMARK  158  A    between atoms: _370  and  _371
REMARK  159  A    between atoms: _374  and  _376
REMARK  160  A    between atoms: _376  and  _377
REMARK  161  A    between atoms: _376  and  _379
REMARK  162  A    between atoms: _382  and  _384
REMARK  163  A    between atoms: _384  and  _385
REMARK  164  A    between atoms: _384  and  _387
REMARK  165  A    between atoms: _387  and  _388
REMARK  166  A    between atoms: _391  and  _393
REMARK  167  A    between atoms: _393  and  _394
REMARK  168  A    between atoms: _393  and  _396
REMARK  169  A    between atoms: _396  and  _397
REMARK  170  A    between atoms: _399  and  _401
REMARK  171  A    between atoms: _401  and  _402
REMARK  172  A    between atoms: _401  and  _404
REMARK  173  A    between atoms: _404  and  _405
REMARK  174  A    between atoms: _415  and  _417
REMARK  175  A    between atoms: _417  and  _418
REMARK  176  A    between atoms: _417  and  _420
REMARK  177  A    between atoms: _420  and  _421
REMARK  178  A    between atoms: _423  and  _425
REMARK  179  A    between atoms: _425  and  _426
REMARK  180  A    between atoms: _425  and  _428
REMARK  181  A    between atoms: _428  and  _429
REMARK  182  A    between atoms: _429  and  _430
REMARK  183  A    between atoms: _433  and  _435
REMARK  184  A    between atoms: _435  and  _436
REMARK  185  A    between atoms: _435  and  _438
REMARK  186  A    between atoms: _438  and  _439
REMARK  187  A    between atoms: _439  and  _440
REMARK  188  A    between atoms: _440  and  _441
REMARK                            x       y       z     vdW  Elec       q    Type
REMARK                         _______ _______ _______ _____ _____    ______ ____
ROOT
ATOM      1  O   HOH     1     -17.312 -33.562 -30.439  0.00  0.00    +0.000 OA
ENDROOT
TORSDOF 0
REMARK  Name = ../refined-set-2016/1px4/1px4_pocket.pdb
REMARK  188 active torsions:
REMARK  status: ('A' for Active; 'I' for Inactive)
REMARK    1  A    between atoms: _1  and  _3
REMARK    2  A    between atoms: _3  and  _4
REMARK    3  A    between atoms: _3  and  _6
REMARK    4  A    between atoms: _6  and  _7
REMARK    5  A    between atoms: _12  and  _13
REMARK    6  A    between atoms: _15  and  _17
REMARK    7  A    between atoms: _17  and  _18
REMARK    8  A    between atoms: _17  and  _20
REMARK    9  A    between atoms: _20  and  _21
REMARK   10  A    between atoms: _26  and  _28
REMARK   11  A    between atoms: _28  and  _29
REMARK   12  A    between atoms: _28  and  _31
REMARK   13  A    between atoms: _34  and  _36
REMARK   14  A    between atoms: _36  and  _37
REMARK   15  A    between atoms: _36  and  _39
REMARK   16  A    between atoms: _39  and  _40
REMARK   17  A    between atoms: _43  and  _45
REMARK   18  A    between atoms: _45  and  _46
REMARK   19  A    between atoms: _45  and  _48
REMARK   20  A    between atoms: _48  and  _49
REMARK   21  A    between atoms: _49  and  _50
REMARK   22  A    between atoms: _55  and  _57
REMARK   23  A    between atoms: _57  and  _58
REMARK   24  A    between atoms: _57  and  _60
REMARK   25  A    between atoms: _60  and  _61
REMARK   26  A    between atoms: _64  and  _66
REMARK   27  A    between atoms: _66  and  _67
REMARK   28  A    between atoms: _66  and  _69
REMARK   29  A    between atoms: _69  and  _70
REMARK   30  A    between atoms: _70  and  _71
REMARK   31  A    between atoms: _73  and  _75
REMARK   32  A    between atoms: _75  and  _76
REMARK   33  A    between atoms: _75  and  _78
REMARK   34  A    between atoms: _78  and  _79
REMARK   35  A    between atoms: _84  and  _86
REMARK   36  A    between atoms: _86  and  _87
REMARK   37  A    between atoms: _86  and  _89
REMARK   38  A    between atoms: _89  and  _90
REMARK   39  A    between atoms: _95  and  _97
REMARK   40  A    between atoms: _97  and  _98
REMARK   41  A    between atoms: _97  and  _100
REMARK   42  A    between atoms: _100  and  _101
REMARK   43  A    between atoms: _101  and  _102
REMARK   44  A    between atoms: _102  and  _103
REMARK   45  A    between atoms: _112  and  _114
REMARK   46  A    between atoms: _114  and  _115
REMARK   47  A    between atoms: _114  and  _117
REMARK   48  A    between atoms: _117  and  _118
REMARK   49  A    between atoms: _120  and  _122
REMARK   50  A    between atoms: _122  and  _123
REMARK   51  A    between atoms: _122  and  _125
REMARK   52  A    between atoms: _125  and  _126
REMARK   53  A    between atoms: _131  and  _133
REMARK   54  A    between atoms: _133  and  _134
REMARK   55  A    between atoms: _133  and  _136
REMARK   56  A    between atoms: _136  and  _137
REMARK   57  A    between atoms: _137  and  _138
REMARK   58  A    between atoms: _141  and  _143
REMARK   59  A    between atoms: _143  and  _144
REMARK   60  A    between atoms: _143  and  _146
REMARK   61  A    between atoms: _146  and  _147
REMARK   62  A    between atoms: _152  and  _154
REMARK   63  A    between atoms: _154  and  _155
REMARK   64  A    between atoms: _154  and  _157
REMARK   65  A    between atoms: _157  and  _158
REMARK   66  A    between atoms: _158  and  _159
REMARK   67  A    between atoms: _161  and  _163
REMARK   68  A    between atoms: _163  and  _164
REMARK   69  A    between atoms: _163  and  _166
REMARK   70  A    between atoms: _166  and  _167
REMARK   71  A    between atoms: _172  and  _174
REMARK   72  A    between atoms: _174  and  _175
REMARK   73  A    between atoms: _174  and  _177
REMARK   74  A    between atoms: _177  and  _178
REMARK   75  A    between atoms: _178  and  _179
REMARK   76  A    between atoms: _179  and  _180
REMARK   77  A    between atoms: _180  and  MG_450
REMARK   78  A    between atoms: _182  and  _184
REMARK   79  A    between atoms: _184  and  _185
REMARK   80  A    between atoms: _184  and  _187
REMARK   81  A    between atoms: _187  and  _188
REMARK   82  A    between atoms: _188  and  _189
REMARK   83  A    between atoms: _192  and  _194
REMARK   84  A    between atoms: _194  and  _195
REMARK   85  A    between atoms: _194  and  _197
REMARK   86  A    between atoms: _197  and  _198
REMARK   87  A    between atoms: _198  and  _199
REMARK   88  A    between atoms: _201  and  _203
REMARK   89  A    between atoms: _203  and  _204
REMARK   90  A    between atoms: _203  and  _206
REMARK   91  A    between atoms: _206  and  _207
REMARK   92  A    between atoms: _212  and  _213
REMARK   93  A    between atoms: _215  and  _217
REMARK   94  A    between atoms: _217  and  _218
REMARK   95  A    between atoms: _217  and  _220
REMARK   96  A    between atoms: _220  and  _221
REMARK   97  A    between atoms: _221  and  _222
REMARK   98  A    between atoms: _222  and  _223
REMARK   99  A    between atoms: _223  and  _224
REMARK  100  A    between atoms: _228  and  _230
REMARK  101  A    between atoms: _230  and  _231
REMARK  102  A    between atoms: _230  and  _233
REMARK  103  A    between atoms: _235  and  _237
REMARK  104  A    between atoms: _237  and  _238
REMARK  105  A    between atoms: _237  and  _240
REMARK  106  A    between atoms: _240  and  _241
REMARK  107  A    between atoms: _241  and  _242
REMARK  108  A    between atoms: _245  and  _247
REMARK  109  A    between atoms: _247  and  _248
REMARK  110  A    between atoms: _247  and  _250
REMARK  111  A    between atoms: _250  and  _251
REMARK  112  A    between atoms: _256  and  _258
REMARK  113  A    between atoms: _258  and  _259
REMARK  114  A    between atoms: _262  and  _264
REMARK  115  A    between atoms: _264  and  _265
REMARK  116  A    between atoms: _264  and  _267
REMARK  117  A    between atoms: _267  and  _268
REMARK  118  A    between atoms: _268  and  _269
REMARK  119  A    between atoms: _271  and  _273
REMARK  120  A    between atoms: _273  and  _274
REMARK  121  A    between atoms: _273  and  _276
REMARK  122  A    between atoms: _276  and  _277
REMARK  123  A    between atoms: _287  and  _289
REMARK  124  A    between atoms: _289  and  _290
REMARK  125  A    between atoms: _289  and  _292
REMARK  126  A    between atoms: _292  and  _293
REMARK  127  A    between atoms: _296  and  _298
REMARK  128  A    between atoms: _298  and  _299
REMARK  129  A    between atoms: _298  and  _301
REMARK  130  A    between atoms: _301  and  _302
REMARK  131  A    between atoms: _302  and  _303
REMARK  132  A    between atoms: _308  and  _310
REMARK  133  A    between atoms: _310  and  _311
REMARK  134  A    between atoms: _310  and  _313
REMARK  135  A    between atoms: _313  and  _314
REMARK  136  A    between atoms: _317  and  _319
REMARK  137  A    between atoms: _319  and  _320
REMARK  138  A    between atoms: _319  and  _322
REMARK  139  A    between atoms: _322  and  _323
REMARK  140  A    between atoms: _323  and  _324
REMARK  141  A    between atoms: _329  and  _331
REMARK  142  A    between atoms: _331  and  _332
REMARK  143  A    between atoms: _331  and  _334
REMARK  144  A    between atoms: _334  and  _335
REMARK  145  A    between atoms: _341  and  _343
REMARK  146  A    between atoms: _343  and  _344
REMARK  147  A    between atoms: _343  and  _346
REMARK  148  A    between atoms: _348  and  _350
REMARK  149  A    between atoms: _350  and  _351
REMARK  150  A    between atoms: _350  and  _353
REMARK  151  A    between atoms: _353  and  _354
REMARK  152  A    between atoms: _354  and  _355
REMARK  153  A    between atoms: _357  and  _359
REMARK  154  A    between atoms: _359  and  _360
REMARK  155  A    between atoms: _359  and  _362
REMARK  156  A    between atoms: _362  and  _363
REMARK  157  A    between atoms: _368  and  _370
REMARK  158  A    between atoms: _370  and  _371
REMARK  159  A    between atoms: _374  and  _376
REMARK  160  A    between atoms: _376  and  _377
REMARK  161  A    between atoms: _376  and  _379
REMARK  162  A    between atoms: _382  and  _384
REMARK  163  A    between atoms: _384  and  _385
REMARK  164  A    between atoms: _384  and  _387
REMARK  165  A    between atoms: _387  and  _388
REMARK  166  A    between atoms: _391  and  _393
REMARK  167  A    between atoms: _393  and  _394
REMARK  168  A    between atoms: _393  and  _396
REMARK  169  A    between atoms: _396  and  _397
REMARK  170  A    between atoms: _399  and  _401
REMARK  171  A    between atoms: _401  and  _402
REMARK  172  A    between atoms: _401  and  _404
REMARK  173  A    between atoms: _404  and  _405
REMARK  174  A    between atoms: _415  and  _417
REMARK  175  A    between atoms: _417  and  _418
REMARK  176  A    between atoms: _417  and  _420
REMARK  177  A    between atoms: _420  and  _421
REMARK  178  A    between atoms: _423  and  _425
REMARK  179  A    between atoms: _425  and  _426
REMARK  180  A    between atoms: _425  and  _428
REMARK  181  A    between atoms: _428  and  _429
REMARK  182  A    between atoms: _429  and  _430
REMARK  183  A    between atoms: _433  and  _435
REMARK  184  A    between atoms: _435  and  _436
REMARK  185  A    between atoms: _435  and  _438
REMARK  186  A    between atoms: _438  and  _439
REMARK  187  A    between atoms: _439  and  _440
REMARK  188  A    between atoms: _440  and  _441
REMARK                            x       y       z     vdW  Elec       q    Type
REMARK                         _______ _______ _______ _____ _____    ______ ____
ROOT
ATOM      1  O   HOH     1     -12.945 -24.080 -21.675  0.00  0.00    +0.000 OA
ENDROOT
TORSDOF 0
REMARK  Name = ../refined-set-2016/1px4/1px4_pocket.pdb
REMARK  188 active torsions:
REMARK  status: ('A' for Active; 'I' for Inactive)
REMARK    1  A    between atoms: _1  and  _3
REMARK    2  A    between atoms: _3  and  _4
REMARK    3  A    between atoms: _3  and  _6
REMARK    4  A    between atoms: _6  and  _7
REMARK    5  A    between atoms: _12  and  _13
REMARK    6  A    between atoms: _15  and  _17
REMARK    7  A    between atoms: _17  and  _18
REMARK    8  A    between atoms: _17  and  _20
REMARK    9  A    between atoms: _20  and  _21
REMARK   10  A    between atoms: _26  and  _28
REMARK   11  A    between atoms: _28  and  _29
REMARK   12  A    between atoms: _28  and  _31
REMARK   13  A    between atoms: _34  and  _36
REMARK   14  A    between atoms: _36  and  _37
REMARK   15  A    between atoms: _36  and  _39
REMARK   16  A    between atoms: _39  and  _40
REMARK   17  A    between atoms: _43  and  _45
REMARK   18  A    between atoms: _45  and  _46
REMARK   19  A    between atoms: _45  and  _48
REMARK   20  A    between atoms: _48  and  _49
REMARK   21  A    between atoms: _49  and  _50
REMARK   22  A    between atoms: _55  and  _57
REMARK   23  A    between atoms: _57  and  _58
REMARK   24  A    between atoms: _57  and  _60
REMARK   25  A    between atoms: _60  and  _61
REMARK   26  A    between atoms: _64  and  _66
REMARK   27  A    between atoms: _66  and  _67
REMARK   28  A    between atoms: _66  and  _69
REMARK   29  A    between atoms: _69  and  _70
REMARK   30  A    between atoms: _70  and  _71
REMARK   31  A    between atoms: _73  and  _75
REMARK   32  A    between atoms: _75  and  _76
REMARK   33  A    between atoms: _75  and  _78
REMARK   34  A    between atoms: _78  and  _79
REMARK   35  A    between atoms: _84  and  _86
REMARK   36  A    between atoms: _86  and  _87
REMARK   37  A    between atoms: _86  and  _89
REMARK   38  A    between atoms: _89  and  _90
REMARK   39  A    between atoms: _95  and  _97
REMARK   40  A    between atoms: _97  and  _98
REMARK   41  A    between atoms: _97  and  _100
REMARK   42  A    between atoms: _100  and  _101
REMARK   43  A    between atoms: _101  and  _102
REMARK   44  A    between atoms: _102  and  _103
REMARK   45  A    between atoms: _112  and  _114
REMARK   46  A    between atoms: _114  and  _115
REMARK   47  A    between atoms: _114  and  _117
REMARK   48  A    between atoms: _117  and  _118
REMARK   49  A    between atoms: _120  and  _122
REMARK   50  A    between atoms: _122  and  _123
REMARK   51  A    between atoms: _122  and  _125
REMARK   52  A    between atoms: _125  and  _126
REMARK   53  A    between atoms: _131  and  _133
REMARK   54  A    between atoms: _133  and  _134
REMARK   55  A    between atoms: _133  and  _136
REMARK   56  A    between atoms: _136  and  _137
REMARK   57  A    between atoms: _137  and  _138
REMARK   58  A    between atoms: _141  and  _143
REMARK   59  A    between atoms: _143  and  _144
REMARK   60  A    between atoms: _143  and  _146
REMARK   61  A    between atoms: _146  and  _147
REMARK   62  A    between atoms: _152  and  _154
REMARK   63  A    between atoms: _154  and  _155
REMARK   64  A    between atoms: _154  and  _157
REMARK   65  A    between atoms: _157  and  _158
REMARK   66  A    between atoms: _158  and  _159
REMARK   67  A    between atoms: _161  and  _163
REMARK   68  A    between atoms: _163  and  _164
REMARK   69  A    between atoms: _163  and  _166
REMARK   70  A    between atoms: _166  and  _167
REMARK   71  A    between atoms: _172  and  _174
REMARK   72  A    between atoms: _174  and  _175
REMARK   73  A    between atoms: _174  and  _177
REMARK   74  A    between atoms: _177  and  _178
REMARK   75  A    between atoms: _178  and  _179
REMARK   76  A    between atoms: _179  and  _180
REMARK   77  A    between atoms: _180  and  MG_450
REMARK   78  A    between atoms: _182  and  _184
REMARK   79  A    between atoms: _184  and  _185
REMARK   80  A    between atoms: _184  and  _187
REMARK   81  A    between atoms: _187  and  _188
REMARK   82  A    between atoms: _188  and  _189
REMARK   83  A    between atoms: _192  and  _194
REMARK   84  A    between atoms: _194  and  _195
REMARK   85  A    between atoms: _194  and  _197
REMARK   86  A    between atoms: _197  and  _198
REMARK   87  A    between atoms: _198  and  _199
REMARK   88  A    between atoms: _201  and  _203
REMARK   89  A    between atoms: _203  and  _204
REMARK   90  A    between atoms: _203  and  _206
REMARK   91  A    between atoms: _206  and  _207
REMARK   92  A    between atoms: _212  and  _213
REMARK   93  A    between atoms: _215  and  _217
REMARK   94  A    between atoms: _217  and  _218
REMARK   95  A    between atoms: _217  and  _220
REMARK   96  A    between atoms: _220  and  _221
REMARK   97  A    between atoms: _221  and  _222
REMARK   98  A    between atoms: _222  and  _223
REMARK   99  A    between atoms: _223  and  _224
REMARK  100  A    between atoms: _228  and  _230
REMARK  101  A    between atoms: _230  and  _231
REMARK  102  A    between atoms: _230  and  _233
REMARK  103  A    between atoms: _235  and  _237
REMARK  104  A    between atoms: _237  and  _238
REMARK  105  A    between atoms: _237  and  _240
REMARK  106  A    between atoms: _240  and  _241
REMARK  107  A    between atoms: _241  and  _242
REMARK  108  A    between atoms: _245  and  _247
REMARK  109  A    between atoms: _247  and  _248
REMARK  110  A    between atoms: _247  and  _250
REMARK  111  A    between atoms: _250  and  _251
REMARK  112  A    between atoms: _256  and  _258
REMARK  113  A    between atoms: _258  and  _259
REMARK  114  A    between atoms: _262  and  _264
REMARK  115  A    between atoms: _264  and  _265
REMARK  116  A    between atoms: _264  and  _267
REMARK  117  A    between atoms: _267  and  _268
REMARK  118  A    between atoms: _268  and  _269
REMARK  119  A    between atoms: _271  and  _273
REMARK  120  A    between atoms: _273  and  _274
REMARK  121  A    between atoms: _273  and  _276
REMARK  122  A    between atoms: _276  and  _277
REMARK  123  A    between atoms: _287  and  _289
REMARK  124  A    between atoms: _289  and  _290
REMARK  125  A    between atoms: _289  and  _292
REMARK  126  A    between atoms: _292  and  _293
REMARK  127  A    between atoms: _296  and  _298
REMARK  128  A    between atoms: _298  and  _299
REMARK  129  A    between atoms: _298  and  _301
REMARK  130  A    between atoms: _301  and  _302
REMARK  131  A    between atoms: _302  and  _303
REMARK  132  A    between atoms: _308  and  _310
REMARK  133  A    between atoms: _310  and  _311
REMARK  134  A    between atoms: _310  and  _313
REMARK  135  A    between atoms: _313  and  _314
REMARK  136  A    between atoms: _317  and  _319
REMARK  137  A    between atoms: _319  and  _320
REMARK  138  A    between atoms: _319  and  _322
REMARK  139  A    between atoms: _322  and  _323
REMARK  140  A    between atoms: _323  and  _324
REMARK  141  A    between atoms: _329  and  _331
REMARK  142  A    between atoms: _331  and  _332
REMARK  143  A    between atoms: _331  and  _334
REMARK  144  A    between atoms: _334  and  _335
REMARK  145  A    between atoms: _341  and  _343
REMARK  146  A    between atoms: _343  and  _344
REMARK  147  A    between atoms: _343  and  _346
REMARK  148  A    between atoms: _348  and  _350
REMARK  149  A    between atoms: _350  and  _351
REMARK  150  A    between atoms: _350  and  _353
REMARK  151  A    between atoms: _353  and  _354
REMARK  152  A    between atoms: _354  and  _355
REMARK  153  A    between atoms: _357  and  _359
REMARK  154  A    between atoms: _359  and  _360
REMARK  155  A    between atoms: _359  and  _362
REMARK  156  A    between atoms: _362  and  _363
REMARK  157  A    between atoms: _368  and  _370
REMARK  158  A    between atoms: _370  and  _371
REMARK  159  A    between atoms: _374  and  _376
REMARK  160  A    between atoms: _376  and  _377
REMARK  161  A    between atoms: _376  and  _379
REMARK  162  A    between atoms: _382  and  _384
REMARK  163  A    between atoms: _384  and  _385
REMARK  164  A    between atoms: _384  and  _387
REMARK  165  A    between atoms: _387  and  _388
REMARK  166  A    between atoms: _391  and  _393
REMARK  167  A    between atoms: _393  and  _394
REMARK  168  A    between atoms: _393  and  _396
REMARK  169  A    between atoms: _396  and  _397
REMARK  170  A    between atoms: _399  and  _401
REMARK  171  A    between atoms: _401  and  _402
REMARK  172  A    between atoms: _401  and  _404
REMARK  173  A    between atoms: _404  and  _405
REMARK  174  A    between atoms: _415  and  _417
REMARK  175  A    between atoms: _417  and  _418
REMARK  176  A    between atoms: _417  and  _420
REMARK  177  A    between atoms: _420  and  _421
REMARK  178  A    between atoms: _423  and  _425
REMARK  179  A    between atoms: _425  and  _426
REMARK  180  A    between atoms: _425  and  _428
REMARK  181  A    between atoms: _428  and  _429
REMARK  182  A    between atoms: _429  and  _430
REMARK  183  A    between atoms: _433  and  _435
REMARK  184  A    between atoms: _435  and  _436
REMARK  185  A    between atoms: _435  and  _438
REMARK  186  A    between atoms: _438  and  _439
REMARK  187  A    between atoms: _439  and  _440
REMARK  188  A    between atoms: _440  and  _441
REMARK                            x       y       z     vdW  Elec       q    Type
REMARK                         _______ _______ _______ _____ _____    ______ ____
ROOT
ATOM      1  O   HOH     1     -17.511 -23.477 -22.787  0.00  0.00    +0.000 OA
ENDROOT
TORSDOF 0
REMARK  Name = ../refined-set-2016/1px4/1px4_pocket.pdb
REMARK  188 active torsions:
REMARK  status: ('A' for Active; 'I' for Inactive)
REMARK    1  A    between atoms: _1  and  _3
REMARK    2  A    between atoms: _3  and  _4
REMARK    3  A    between atoms: _3  and  _6
REMARK    4  A    between atoms: _6  and  _7
REMARK    5  A    between atoms: _12  and  _13
REMARK    6  A    between atoms: _15  and  _17
REMARK    7  A    between atoms: _17  and  _18
REMARK    8  A    between atoms: _17  and  _20
REMARK    9  A    between atoms: _20  and  _21
REMARK   10  A    between atoms: _26  and  _28
REMARK   11  A    between atoms: _28  and  _29
REMARK   12  A    between atoms: _28  and  _31
REMARK   13  A    between atoms: _34  and  _36
REMARK   14  A    between atoms: _36  and  _37
REMARK   15  A    between atoms: _36  and  _39
REMARK   16  A    between atoms: _39  and  _40
REMARK   17  A    between atoms: _43  and  _45
REMARK   18  A    between atoms: _45  and  _46
REMARK   19  A    between atoms: _45  and  _48
REMARK   20  A    between atoms: _48  and  _49
REMARK   21  A    between atoms: _49  and  _50
REMARK   22  A    between atoms: _55  and  _57
REMARK   23  A    between atoms: _57  and  _58
REMARK   24  A    between atoms: _57  and  _60
REMARK   25  A    between atoms: _60  and  _61
REMARK   26  A    between atoms: _64  and  _66
REMARK   27  A    between atoms: _66  and  _67
REMARK   28  A    between atoms: _66  and  _69
REMARK   29  A    between atoms: _69  and  _70
REMARK   30  A    between atoms: _70  and  _71
REMARK   31  A    between atoms: _73  and  _75
REMARK   32  A    between atoms: _75  and  _76
REMARK   33  A    between atoms: _75  and  _78
REMARK   34  A    between atoms: _78  and  _79
REMARK   35  A    between atoms: _84  and  _86
REMARK   36  A    between atoms: _86  and  _87
REMARK   37  A    between atoms: _86  and  _89
REMARK   38  A    between atoms: _89  and  _90
REMARK   39  A    between atoms: _95  and  _97
REMARK   40  A    between atoms: _97  and  _98
REMARK   41  A    between atoms: _97  and  _100
REMARK   42  A    between atoms: _100  and  _101
REMARK   43  A    between atoms: _101  and  _102
REMARK   44  A    between atoms: _102  and  _103
REMARK   45  A    between atoms: _112  and  _114
REMARK   46  A    between atoms: _114  and  _115
REMARK   47  A    between atoms: _114  and  _117
REMARK   48  A    between atoms: _117  and  _118
REMARK   49  A    between atoms: _120  and  _122
REMARK   50  A    between atoms: _122  and  _123
REMARK   51  A    between atoms: _122  and  _125
REMARK   52  A    between atoms: _125  and  _126
REMARK   53  A    between atoms: _131  and  _133
REMARK   54  A    between atoms: _133  and  _134
REMARK   55  A    between atoms: _133  and  _136
REMARK   56  A    between atoms: _136  and  _137
REMARK   57  A    between atoms: _137  and  _138
REMARK   58  A    between atoms: _141  and  _143
REMARK   59  A    between atoms: _143  and  _144
REMARK   60  A    between atoms: _143  and  _146
REMARK   61  A    between atoms: _146  and  _147
REMARK   62  A    between atoms: _152  and  _154
REMARK   63  A    between atoms: _154  and  _155
REMARK   64  A    between atoms: _154  and  _157
REMARK   65  A    between atoms: _157  and  _158
REMARK   66  A    between atoms: _158  and  _159
REMARK   67  A    between atoms: _161  and  _163
REMARK   68  A    between atoms: _163  and  _164
REMARK   69  A    between atoms: _163  and  _166
REMARK   70  A    between atoms: _166  and  _167
REMARK   71  A    between atoms: _172  and  _174
REMARK   72  A    between atoms: _174  and  _175
REMARK   73  A    between atoms: _174  and  _177
REMARK   74  A    between atoms: _177  and  _178
REMARK   75  A    between atoms: _178  and  _179
REMARK   76  A    between atoms: _179  and  _180
REMARK   77  A    between atoms: _180  and  MG_450
REMARK   78  A    between atoms: _182  and  _184
REMARK   79  A    between atoms: _184  and  _185
REMARK   80  A    between atoms: _184  and  _187
REMARK   81  A    between atoms: _187  and  _188
REMARK   82  A    between atoms: _188  and  _189
REMARK   83  A    between atoms: _192  and  _194
REMARK   84  A    between atoms: _194  and  _195
REMARK   85  A    between atoms: _194  and  _197
REMARK   86  A    between atoms: _197  and  _198
REMARK   87  A    between atoms: _198  and  _199
REMARK   88  A    between atoms: _201  and  _203
REMARK   89  A    between atoms: _203  and  _204
REMARK   90  A    between atoms: _203  and  _206
REMARK   91  A    between atoms: _206  and  _207
REMARK   92  A    between atoms: _212  and  _213
REMARK   93  A    between atoms: _215  and  _217
REMARK   94  A    between atoms: _217  and  _218
REMARK   95  A    between atoms: _217  and  _220
REMARK   96  A    between atoms: _220  and  _221
REMARK   97  A    between atoms: _221  and  _222
REMARK   98  A    between atoms: _222  and  _223
REMARK   99  A    between atoms: _223  and  _224
REMARK  100  A    between atoms: _228  and  _230
REMARK  101  A    between atoms: _230  and  _231
REMARK  102  A    between atoms: _230  and  _233
REMARK  103  A    between atoms: _235  and  _237
REMARK  104  A    between atoms: _237  and  _238
REMARK  105  A    between atoms: _237  and  _240
REMARK  106  A    between atoms: _240  and  _241
REMARK  107  A    between atoms: _241  and  _242
REMARK  108  A    between atoms: _245  and  _247
REMARK  109  A    between atoms: _247  and  _248
REMARK  110  A    between atoms: _247  and  _250
REMARK  111  A    between atoms: _250  and  _251
REMARK  112  A    between atoms: _256  and  _258
REMARK  113  A    between atoms: _258  and  _259
REMARK  114  A    between atoms: _262  and  _264
REMARK  115  A    between atoms: _264  and  _265
REMARK  116  A    between atoms: _264  and  _267
REMARK  117  A    between atoms: _267  and  _268
REMARK  118  A    between atoms: _268  and  _269
REMARK  119  A    between atoms: _271  and  _273
REMARK  120  A    between atoms: _273  and  _274
REMARK  121  A    between atoms: _273  and  _276
REMARK  122  A    between atoms: _276  and  _277
REMARK  123  A    between atoms: _287  and  _289
REMARK  124  A    between atoms: _289  and  _290
REMARK  125  A    between atoms: _289  and  _292
REMARK  126  A    between atoms: _292  and  _293
REMARK  127  A    between atoms: _296  and  _298
REMARK  128  A    between atoms: _298  and  _299
REMARK  129  A    between atoms: _298  and  _301
REMARK  130  A    between atoms: _301  and  _302
REMARK  131  A    between atoms: _302  and  _303
REMARK  132  A    between atoms: _308  and  _310
REMARK  133  A    between atoms: _310  and  _311
REMARK  134  A    between atoms: _310  and  _313
REMARK  135  A    between atoms: _313  and  _314
REMARK  136  A    between atoms: _317  and  _319
REMARK  137  A    between atoms: _319  and  _320
REMARK  138  A    between atoms: _319  and  _322
REMARK  139  A    between atoms: _322  and  _323
REMARK  140  A    between atoms: _323  and  _324
REMARK  141  A    between atoms: _329  and  _331
REMARK  142  A    between atoms: _331  and  _332
REMARK  143  A    between atoms: _331  and  _334
REMARK  144  A    between atoms: _334  and  _335
REMARK  145  A    between atoms: _341  and  _343
REMARK  146  A    between atoms: _343  and  _344
REMARK  147  A    between atoms: _343  and  _346
REMARK  148  A    between atoms: _348  and  _350
REMARK  149  A    between atoms: _350  and  _351
REMARK  150  A    between atoms: _350  and  _353
REMARK  151  A    between atoms: _353  and  _354
REMARK  152  A    between atoms: _354  and  _355
REMARK  153  A    between atoms: _357  and  _359
REMARK  154  A    between atoms: _359  and  _360
REMARK  155  A    between atoms: _359  and  _362
REMARK  156  A    between atoms: _362  and  _363
REMARK  157  A    between atoms: _368  and  _370
REMARK  158  A    between atoms: _370  and  _371
REMARK  159  A    between atoms: _374  and  _376
REMARK  160  A    between atoms: _376  and  _377
REMARK  161  A    between atoms: _376  and  _379
REMARK  162  A    between atoms: _382  and  _384
REMARK  163  A    between atoms: _384  and  _385
REMARK  164  A    between atoms: _384  and  _387
REMARK  165  A    between atoms: _387  and  _388
REMARK  166  A    between atoms: _391  and  _393
REMARK  167  A    between atoms: _393  and  _394
REMARK  168  A    between atoms: _393  and  _396
REMARK  169  A    between atoms: _396  and  _397
REMARK  170  A    between atoms: _399  and  _401
REMARK  171  A    between atoms: _401  and  _402
REMARK  172  A    between atoms: _401  and  _404
REMARK  173  A    between atoms: _404  and  _405
REMARK  174  A    between atoms: _415  and  _417
REMARK  175  A    between atoms: _417  and  _418
REMARK  176  A    between atoms: _417  and  _420
REMARK  177  A    between atoms: _420  and  _421
REMARK  178  A    between atoms: _423  and  _425
REMARK  179  A    between atoms: _425  and  _426
REMARK  180  A    between atoms: _425  and  _428
REMARK  181  A    between atoms: _428  and  _429
REMARK  182  A    between atoms: _429  and  _430
REMARK  183  A    between atoms: _433  and  _435
REMARK  184  A    between atoms: _435  and  _436
REMARK  185  A    between atoms: _435  and  _438
REMARK  186  A    between atoms: _438  and  _439
REMARK  187  A    between atoms: _439  and  _440
REMARK  188  A    between atoms: _440  and  _441
REMARK                            x       y       z     vdW  Elec       q    Type
REMARK                         _______ _______ _______ _____ _____    ______ ____
ROOT
ATOM      1  O   HOH     1     -20.863 -26.225 -21.649  0.00  0.00    +0.000 OA
ENDROOT
TORSDOF 0
