REMARK  Name = ../refined-set-2016/3s71/3s71_pocket.pdb
REMARK  153 active torsions:
REMARK  status: ('A' for Active; 'I' for Inactive)
REMARK    1  A    between atoms: _1  and  _5
REMARK    2  A    between atoms: _5  and  _6
REMARK    3  A    between atoms: _5  and  _8
REMARK    4  A    between atoms: _8  and  _9
REMARK    5  A    between atoms: _14  and  _16
REMARK    6  A    between atoms: _16  and  _17
REMARK    7  A    between atoms: _16  and  _19
REMARK    8  A    between atoms: _19  and  _20
REMARK    9  A    between atoms: _30  and  _32
REMARK   10  A    between atoms: _32  and  _33
REMARK   11  A    between atoms: _32  and  _35
REMARK   12  A    between atoms: _35  and  _36
REMARK   13  A    between atoms: _41  and  _42
REMARK   14  A    between atoms: _44  and  _46
REMARK   15  A    between atoms: _46  and  _47
REMARK   16  A    between atoms: _46  and  _49
REMARK   17  A    between atoms: _49  and  _50
REMARK   18  A    between atoms: _53  and  _54
REMARK   19  A    between atoms: _59  and  _61
REMARK   20  A    between atoms: _61  and  _62
REMARK   21  A    between atoms: _61  and  _64
REMARK   22  A    between atoms: _64  and  _65
REMARK   23  A    between atoms: _70  and  _72
REMARK   24  A    between atoms: _72  and  _73
REMARK   25  A    between atoms: _72  and  _75
REMARK   26  A    between atoms: _75  and  _76
REMARK   27  A    between atoms: _81  and  _83
REMARK   28  A    between atoms: _83  and  _84
REMARK   29  A    between atoms: _87  and  _89
REMARK   30  A    between atoms: _89  and  _90
REMARK   31  A    between atoms: _89  and  _92
REMARK   32  A    between atoms: _92  and  _93
REMARK   33  A    between atoms: _98  and  _100
REMARK   34  A    between atoms: _100  and  _101
REMARK   35  A    between atoms: _100  and  _103
REMARK   36  A    between atoms: _103  and  _104
REMARK   37  A    between atoms: _107  and  _109
REMARK   38  A    between atoms: _109  and  _110
REMARK   39  A    between atoms: _109  and  _112
REMARK   40  A    between atoms: _112  and  _113
REMARK   41  A    between atoms: _113  and  _114
REMARK   42  A    between atoms: _119  and  _121
REMARK   43  A    between atoms: _121  and  _122
REMARK   44  A    between atoms: _121  and  _124
REMARK   45  A    between atoms: _124  and  _125
REMARK   46  A    between atoms: _131  and  _133
REMARK   47  A    between atoms: _144  and  _147
REMARK   48  A    between atoms: _147  and  _148
REMARK   49  A    between atoms: _156  and  _157
REMARK   50  A    between atoms: _165  and  _167
REMARK   51  A    between atoms: _167  and  _168
REMARK   52  A    between atoms: _167  and  _170
REMARK   53  A    between atoms: _170  and  _171
REMARK   54  A    between atoms: _171  and  _172
REMARK   55  A    between atoms: _175  and  _177
REMARK   56  A    between atoms: _177  and  _178
REMARK   57  A    between atoms: _177  and  _180
REMARK   58  A    between atoms: _180  and  _181
REMARK   59  A    between atoms: _186  and  _188
REMARK   60  A    between atoms: _188  and  _189
REMARK   61  A    between atoms: _188  and  _191
REMARK   62  A    between atoms: _191  and  _192
REMARK   63  A    between atoms: _192  and  _193
REMARK   64  A    between atoms: _196  and  _198
REMARK   65  A    between atoms: _198  and  _199
REMARK   66  A    between atoms: _198  and  _201
REMARK   67  A    between atoms: _201  and  _202
REMARK   68  A    between atoms: _205  and  _207
REMARK   69  A    between atoms: _207  and  _208
REMARK   70  A    between atoms: _207  and  _210
REMARK   71  A    between atoms: _210  and  _211
REMARK   72  A    between atoms: _212  and  ZN_432
REMARK   73  A    between atoms: _216  and  _218
REMARK   74  A    between atoms: _218  and  _219
REMARK   75  A    between atoms: _218  and  _221
REMARK   76  A    between atoms: _221  and  _222
REMARK   77  A    between atoms: _225  and  _227
REMARK   78  A    between atoms: _227  and  _228
REMARK   79  A    between atoms: _227  and  _230
REMARK   80  A    between atoms: _233  and  _235
REMARK   81  A    between atoms: _235  and  _236
REMARK   82  A    between atoms: _235  and  _238
REMARK   83  A    between atoms: _238  and  _239
REMARK   84  A    between atoms: _244  and  _246
REMARK   85  A    between atoms: _246  and  _247
REMARK   86  A    between atoms: _246  and  _249
REMARK   87  A    between atoms: _249  and  _250
REMARK   88  A    between atoms: _256  and  _258
REMARK   89  A    between atoms: _258  and  _259
REMARK   90  A    between atoms: _258  and  _261
REMARK   91  A    between atoms: _264  and  _266
REMARK   92  A    between atoms: _266  and  _267
REMARK   93  A    between atoms: _266  and  _269
REMARK   94  A    between atoms: _269  and  _270
REMARK   95  A    between atoms: _273  and  _275
REMARK   96  A    between atoms: _275  and  _276
REMARK   97  A    between atoms: _279  and  _281
REMARK   98  A    between atoms: _281  and  _282
REMARK   99  A    between atoms: _281  and  _284
REMARK  100  A    between atoms: _287  and  _289
REMARK  101  A    between atoms: _289  and  _290
REMARK  102  A    between atoms: _289  and  _292
REMARK  103  A    between atoms: _292  and  _293
REMARK  104  A    between atoms: _296  and  _298
REMARK  105  A    between atoms: _298  and  _299
REMARK  106  A    between atoms: _301  and  _303
REMARK  107  A    between atoms: _303  and  _304
REMARK  108  A    between atoms: _306  and  _308
REMARK  109  A    between atoms: _308  and  _309
REMARK  110  A    between atoms: _308  and  _311
REMARK  111  A    between atoms: _311  and  _312
REMARK  112  A    between atoms: _314  and  _316
REMARK  113  A    between atoms: _316  and  _317
REMARK  114  A    between atoms: _316  and  _319
REMARK  115  A    between atoms: _319  and  _320
REMARK  116  A    between atoms: _323  and  _325
REMARK  117  A    between atoms: _325  and  _326
REMARK  118  A    between atoms: _325  and  _328
REMARK  119  A    between atoms: _328  and  _329
REMARK  120  A    between atoms: _332  and  _334
REMARK  121  A    between atoms: _334  and  _335
REMARK  122  A    between atoms: _334  and  _337
REMARK  123  A    between atoms: _337  and  _338
REMARK  124  A    between atoms: _342  and  _343
REMARK  125  A    between atoms: _349  and  _350
REMARK  126  A    between atoms: _355  and  _357
REMARK  127  A    between atoms: _357  and  _358
REMARK  128  A    between atoms: _357  and  _360
REMARK  129  A    between atoms: _360  and  _361
REMARK  130  A    between atoms: _364  and  _366
REMARK  131  A    between atoms: _366  and  _367
REMARK  132  A    between atoms: _366  and  _369
REMARK  133  A    between atoms: _369  and  _370
REMARK  134  A    between atoms: _373  and  _375
REMARK  135  A    between atoms: _375  and  _376
REMARK  136  A    between atoms: _375  and  _378
REMARK  137  A    between atoms: _380  and  _382
REMARK  138  A    between atoms: _382  and  _383
REMARK  139  A    between atoms: _382  and  _385
REMARK  140  A    between atoms: _388  and  _390
REMARK  141  A    between atoms: _390  and  _391
REMARK  142  A    between atoms: _390  and  _393
REMARK  143  A    between atoms: _393  and  _394
REMARK  144  A    between atoms: _404  and  _406
REMARK  145  A    between atoms: _406  and  _407
REMARK  146  A    between atoms: _406  and  _409
REMARK  147  A    between atoms: _409  and  _410
REMARK  148  A    between atoms: _415  and  _417
REMARK  149  A    between atoms: _417  and  _418
REMARK  150  A    between atoms: _417  and  _420
REMARK  151  A    between atoms: _420  and  _421
REMARK  152  A    between atoms: _421  and  _422
REMARK  153  A    between atoms: _422  and  _423
REMARK                            x       y       z     vdW  Elec       q    Type
REMARK                         _______ _______ _______ _____ _____    ______ ____
ROOT
ATOM      1  CA  HIS A   1      29.382   3.912   9.293  0.00  0.00    +0.007 C 
ENDROOT
BRANCH   1   2
ATOM      2  N   HIS A   1      30.032   5.112   8.616  0.00  0.00    +0.387 N 
ATOM      3  H1  HIS A   1      29.816   5.973   9.158  0.00  0.00    -0.089 HD
ATOM      4  H2  HIS A   1      31.062   4.972   8.580  0.00  0.00    -0.089 HD
ATOM      5  H3  HIS A   1      29.660   5.207   7.650  0.00  0.00    -0.089 HD
ENDBRANCH   1   2
BRANCH   1   6
ATOM      6  C   HIS A   1      29.676   2.623   8.525  0.00  0.00    +0.186 C 
ATOM      7  O   HIS A   1      29.409   2.551   7.317  0.00  0.00    -0.291 OA
ENDBRANCH   1   6
BRANCH   1   8
ATOM      8  CB  HIS A   1      27.866   4.138   9.373  0.00  0.00    +0.033 C 
BRANCH   8   9
ATOM      9  CG  HIS A   1      27.470   5.034  10.493  0.00  0.00    +0.078 A 
ATOM     10  CD2 HIS A   1      28.209   5.950  11.204  0.00  0.00    +0.115 A 
ATOM     11  NE2 HIS A   1      27.364   6.501  12.154  0.00  0.00    -0.221 NA
ATOM     12  CE1 HIS A   1      26.169   5.925  12.047  0.00  0.00    +0.199 A 
ATOM     13  ND1 HIS A   1      26.203   5.017  11.074  0.00  0.00    -0.227 NA
ENDBRANCH   8   9
ENDBRANCH   1   8
TORSDOF 4
REMARK  Name = ../refined-set-2016/3s71/3s71_pocket.pdb
REMARK  153 active torsions:
REMARK  status: ('A' for Active; 'I' for Inactive)
REMARK    1  A    between atoms: _1  and  _5
REMARK    2  A    between atoms: _5  and  _6
REMARK    3  A    between atoms: _5  and  _8
REMARK    4  A    between atoms: _8  and  _9
REMARK    5  A    between atoms: _14  and  _16
REMARK    6  A    between atoms: _16  and  _17
REMARK    7  A    between atoms: _16  and  _19
REMARK    8  A    between atoms: _19  and  _20
REMARK    9  A    between atoms: _30  and  _32
REMARK   10  A    between atoms: _32  and  _33
REMARK   11  A    between atoms: _32  and  _35
REMARK   12  A    between atoms: _35  and  _36
REMARK   13  A    between atoms: _41  and  _42
REMARK   14  A    between atoms: _44  and  _46
REMARK   15  A    between atoms: _46  and  _47
REMARK   16  A    between atoms: _46  and  _49
REMARK   17  A    between atoms: _49  and  _50
REMARK   18  A    between atoms: _53  and  _54
REMARK   19  A    between atoms: _59  and  _61
REMARK   20  A    between atoms: _61  and  _62
REMARK   21  A    between atoms: _61  and  _64
REMARK   22  A    between atoms: _64  and  _65
REMARK   23  A    between atoms: _70  and  _72
REMARK   24  A    between atoms: _72  and  _73
REMARK   25  A    between atoms: _72  and  _75
REMARK   26  A    between atoms: _75  and  _76
REMARK   27  A    between atoms: _81  and  _83
REMARK   28  A    between atoms: _83  and  _84
REMARK   29  A    between atoms: _87  and  _89
REMARK   30  A    between atoms: _89  and  _90
REMARK   31  A    between atoms: _89  and  _92
REMARK   32  A    between atoms: _92  and  _93
REMARK   33  A    between atoms: _98  and  _100
REMARK   34  A    between atoms: _100  and  _101
REMARK   35  A    between atoms: _100  and  _103
REMARK   36  A    between atoms: _103  and  _104
REMARK   37  A    between atoms: _107  and  _109
REMARK   38  A    between atoms: _109  and  _110
REMARK   39  A    between atoms: _109  and  _112
REMARK   40  A    between atoms: _112  and  _113
REMARK   41  A    between atoms: _113  and  _114
REMARK   42  A    between atoms: _119  and  _121
REMARK   43  A    between atoms: _121  and  _122
REMARK   44  A    between atoms: _121  and  _124
REMARK   45  A    between atoms: _124  and  _125
REMARK   46  A    between atoms: _131  and  _133
REMARK   47  A    between atoms: _144  and  _147
REMARK   48  A    between atoms: _147  and  _148
REMARK   49  A    between atoms: _156  and  _157
REMARK   50  A    between atoms: _165  and  _167
REMARK   51  A    between atoms: _167  and  _168
REMARK   52  A    between atoms: _167  and  _170
REMARK   53  A    between atoms: _170  and  _171
REMARK   54  A    between atoms: _171  and  _172
REMARK   55  A    between atoms: _175  and  _177
REMARK   56  A    between atoms: _177  and  _178
REMARK   57  A    between atoms: _177  and  _180
REMARK   58  A    between atoms: _180  and  _181
REMARK   59  A    between atoms: _186  and  _188
REMARK   60  A    between atoms: _188  and  _189
REMARK   61  A    between atoms: _188  and  _191
REMARK   62  A    between atoms: _191  and  _192
REMARK   63  A    between atoms: _192  and  _193
REMARK   64  A    between atoms: _196  and  _198
REMARK   65  A    between atoms: _198  and  _199
REMARK   66  A    between atoms: _198  and  _201
REMARK   67  A    between atoms: _201  and  _202
REMARK   68  A    between atoms: _205  and  _207
REMARK   69  A    between atoms: _207  and  _208
REMARK   70  A    between atoms: _207  and  _210
REMARK   71  A    between atoms: _210  and  _211
REMARK   72  A    between atoms: _212  and  ZN_432
REMARK   73  A    between atoms: _216  and  _218
REMARK   74  A    between atoms: _218  and  _219
REMARK   75  A    between atoms: _218  and  _221
REMARK   76  A    between atoms: _221  and  _222
REMARK   77  A    between atoms: _225  and  _227
REMARK   78  A    between atoms: _227  and  _228
REMARK   79  A    between atoms: _227  and  _230
REMARK   80  A    between atoms: _233  and  _235
REMARK   81  A    between atoms: _235  and  _236
REMARK   82  A    between atoms: _235  and  _238
REMARK   83  A    between atoms: _238  and  _239
REMARK   84  A    between atoms: _244  and  _246
REMARK   85  A    between atoms: _246  and  _247
REMARK   86  A    between atoms: _246  and  _249
REMARK   87  A    between atoms: _249  and  _250
REMARK   88  A    between atoms: _256  and  _258
REMARK   89  A    between atoms: _258  and  _259
REMARK   90  A    between atoms: _258  and  _261
REMARK   91  A    between atoms: _264  and  _266
REMARK   92  A    between atoms: _266  and  _267
REMARK   93  A    between atoms: _266  and  _269
REMARK   94  A    between atoms: _269  and  _270
REMARK   95  A    between atoms: _273  and  _275
REMARK   96  A    between atoms: _275  and  _276
REMARK   97  A    between atoms: _279  and  _281
REMARK   98  A    between atoms: _281  and  _282
REMARK   99  A    between atoms: _281  and  _284
REMARK  100  A    between atoms: _287  and  _289
REMARK  101  A    between atoms: _289  and  _290
REMARK  102  A    between atoms: _289  and  _292
REMARK  103  A    between atoms: _292  and  _293
REMARK  104  A    between atoms: _296  and  _298
REMARK  105  A    between atoms: _298  and  _299
REMARK  106  A    between atoms: _301  and  _303
REMARK  107  A    between atoms: _303  and  _304
REMARK  108  A    between atoms: _306  and  _308
REMARK  109  A    between atoms: _308  and  _309
REMARK  110  A    between atoms: _308  and  _311
REMARK  111  A    between atoms: _311  and  _312
REMARK  112  A    between atoms: _314  and  _316
REMARK  113  A    between atoms: _316  and  _317
REMARK  114  A    between atoms: _316  and  _319
REMARK  115  A    between atoms: _319  and  _320
REMARK  116  A    between atoms: _323  and  _325
REMARK  117  A    between atoms: _325  and  _326
REMARK  118  A    between atoms: _325  and  _328
REMARK  119  A    between atoms: _328  and  _329
REMARK  120  A    between atoms: _332  and  _334
REMARK  121  A    between atoms: _334  and  _335
REMARK  122  A    between atoms: _334  and  _337
REMARK  123  A    between atoms: _337  and  _338
REMARK  124  A    between atoms: _342  and  _343
REMARK  125  A    between atoms: _349  and  _350
REMARK  126  A    between atoms: _355  and  _357
REMARK  127  A    between atoms: _357  and  _358
REMARK  128  A    between atoms: _357  and  _360
REMARK  129  A    between atoms: _360  and  _361
REMARK  130  A    between atoms: _364  and  _366
REMARK  131  A    between atoms: _366  and  _367
REMARK  132  A    between atoms: _366  and  _369
REMARK  133  A    between atoms: _369  and  _370
REMARK  134  A    between atoms: _373  and  _375
REMARK  135  A    between atoms: _375  and  _376
REMARK  136  A    between atoms: _375  and  _378
REMARK  137  A    between atoms: _380  and  _382
REMARK  138  A    between atoms: _382  and  _383
REMARK  139  A    between atoms: _382  and  _385
REMARK  140  A    between atoms: _388  and  _390
REMARK  141  A    between atoms: _390  and  _391
REMARK  142  A    between atoms: _390  and  _393
REMARK  143  A    between atoms: _393  and  _394
REMARK  144  A    between atoms: _404  and  _406
REMARK  145  A    between atoms: _406  and  _407
REMARK  146  A    between atoms: _406  and  _409
REMARK  147  A    between atoms: _409  and  _410
REMARK  148  A    between atoms: _415  and  _417
REMARK  149  A    between atoms: _417  and  _418
REMARK  150  A    between atoms: _417  and  _420
REMARK  151  A    between atoms: _420  and  _421
REMARK  152  A    between atoms: _421  and  _422
REMARK  153  A    between atoms: _422  and  _423
REMARK                            x       y       z     vdW  Elec       q    Type
REMARK                         _______ _______ _______ _____ _____    ______ ____
ROOT
ATOM      1  CG  TRP A   1      26.968   0.124  12.215  0.00  0.00    -0.002 A 
ATOM      2  CD2 TRP A   1      25.585  -0.271  12.058  0.00  0.00    +0.013 A 
ATOM      3  CE3 TRP A   1      24.900  -1.479  12.270  0.00  0.00    +0.001 A 
ATOM      4  CZ3 TRP A   1      23.495  -1.471  12.067  0.00  0.00    +0.000 A 
ATOM      5  CH2 TRP A   1      22.815  -0.288  11.682  0.00  0.00    +0.001 A 
ATOM      6  CZ2 TRP A   1      23.464   0.884  11.499  0.00  0.00    +0.017 A 
ATOM      7  CE2 TRP A   1      24.885   0.893  11.653  0.00  0.00    +0.056 A 
ATOM      8  NE1 TRP A   1      25.784   1.938  11.616  0.00  0.00    -0.352 N 
ATOM      9  HE1 TRP A   1      25.553   2.928  11.396  0.00  0.00    +0.166 HD
ATOM     10  CD1 TRP A   1      27.029   1.460  11.915  0.00  0.00    +0.068 A 
ENDROOT
BRANCH   1  11
ATOM     11  CB  TRP A   1      28.098  -0.771  12.588  0.00  0.00    +0.053 C 
BRANCH  11  12
ATOM     12  CA  TRP A   1      28.753  -1.490  11.423  0.00  0.00    +0.137 C 
BRANCH  12  13
ATOM     13  N   TRP A   1      29.381  -0.513  10.515  0.00  0.00    -0.239 NA
ATOM     14  H   TRP A   1      29.156   0.492  10.659  0.00  0.00    +0.142 HD
ENDBRANCH  12  13
BRANCH  12  15
ATOM     15  C   TRP A   1      27.720  -2.260  10.609  0.00  0.00    +0.224 C 
ATOM     16  O   TRP A   1      27.164  -1.813   9.634  0.00  0.00    -0.287 OA
ENDBRANCH  12  15
ENDBRANCH  11  12
ENDBRANCH   1  11
TORSDOF 4
REMARK  Name = ../refined-set-2016/3s71/3s71_pocket.pdb
REMARK  153 active torsions:
REMARK  status: ('A' for Active; 'I' for Inactive)
REMARK    1  A    between atoms: _1  and  _5
REMARK    2  A    between atoms: _5  and  _6
REMARK    3  A    between atoms: _5  and  _8
REMARK    4  A    between atoms: _8  and  _9
REMARK    5  A    between atoms: _14  and  _16
REMARK    6  A    between atoms: _16  and  _17
REMARK    7  A    between atoms: _16  and  _19
REMARK    8  A    between atoms: _19  and  _20
REMARK    9  A    between atoms: _30  and  _32
REMARK   10  A    between atoms: _32  and  _33
REMARK   11  A    between atoms: _32  and  _35
REMARK   12  A    between atoms: _35  and  _36
REMARK   13  A    between atoms: _41  and  _42
REMARK   14  A    between atoms: _44  and  _46
REMARK   15  A    between atoms: _46  and  _47
REMARK   16  A    between atoms: _46  and  _49
REMARK   17  A    between atoms: _49  and  _50
REMARK   18  A    between atoms: _53  and  _54
REMARK   19  A    between atoms: _59  and  _61
REMARK   20  A    between atoms: _61  and  _62
REMARK   21  A    between atoms: _61  and  _64
REMARK   22  A    between atoms: _64  and  _65
REMARK   23  A    between atoms: _70  and  _72
REMARK   24  A    between atoms: _72  and  _73
REMARK   25  A    between atoms: _72  and  _75
REMARK   26  A    between atoms: _75  and  _76
REMARK   27  A    between atoms: _81  and  _83
REMARK   28  A    between atoms: _83  and  _84
REMARK   29  A    between atoms: _87  and  _89
REMARK   30  A    between atoms: _89  and  _90
REMARK   31  A    between atoms: _89  and  _92
REMARK   32  A    between atoms: _92  and  _93
REMARK   33  A    between atoms: _98  and  _100
REMARK   34  A    between atoms: _100  and  _101
REMARK   35  A    between atoms: _100  and  _103
REMARK   36  A    between atoms: _103  and  _104
REMARK   37  A    between atoms: _107  and  _109
REMARK   38  A    between atoms: _109  and  _110
REMARK   39  A    between atoms: _109  and  _112
REMARK   40  A    between atoms: _112  and  _113
REMARK   41  A    between atoms: _113  and  _114
REMARK   42  A    between atoms: _119  and  _121
REMARK   43  A    between atoms: _121  and  _122
REMARK   44  A    between atoms: _121  and  _124
REMARK   45  A    between atoms: _124  and  _125
REMARK   46  A    between atoms: _131  and  _133
REMARK   47  A    between atoms: _144  and  _147
REMARK   48  A    between atoms: _147  and  _148
REMARK   49  A    between atoms: _156  and  _157
REMARK   50  A    between atoms: _165  and  _167
REMARK   51  A    between atoms: _167  and  _168
REMARK   52  A    between atoms: _167  and  _170
REMARK   53  A    between atoms: _170  and  _171
REMARK   54  A    between atoms: _171  and  _172
REMARK   55  A    between atoms: _175  and  _177
REMARK   56  A    between atoms: _177  and  _178
REMARK   57  A    between atoms: _177  and  _180
REMARK   58  A    between atoms: _180  and  _181
REMARK   59  A    between atoms: _186  and  _188
REMARK   60  A    between atoms: _188  and  _189
REMARK   61  A    between atoms: _188  and  _191
REMARK   62  A    between atoms: _191  and  _192
REMARK   63  A    between atoms: _192  and  _193
REMARK   64  A    between atoms: _196  and  _198
REMARK   65  A    between atoms: _198  and  _199
REMARK   66  A    between atoms: _198  and  _201
REMARK   67  A    between atoms: _201  and  _202
REMARK   68  A    between atoms: _205  and  _207
REMARK   69  A    between atoms: _207  and  _208
REMARK   70  A    between atoms: _207  and  _210
REMARK   71  A    between atoms: _210  and  _211
REMARK   72  A    between atoms: _212  and  ZN_432
REMARK   73  A    between atoms: _216  and  _218
REMARK   74  A    between atoms: _218  and  _219
REMARK   75  A    between atoms: _218  and  _221
REMARK   76  A    between atoms: _221  and  _222
REMARK   77  A    between atoms: _225  and  _227
REMARK   78  A    between atoms: _227  and  _228
REMARK   79  A    between atoms: _227  and  _230
REMARK   80  A    between atoms: _233  and  _235
REMARK   81  A    between atoms: _235  and  _236
REMARK   82  A    between atoms: _235  and  _238
REMARK   83  A    between atoms: _238  and  _239
REMARK   84  A    between atoms: _244  and  _246
REMARK   85  A    between atoms: _246  and  _247
REMARK   86  A    between atoms: _246  and  _249
REMARK   87  A    between atoms: _249  and  _250
REMARK   88  A    between atoms: _256  and  _258
REMARK   89  A    between atoms: _258  and  _259
REMARK   90  A    between atoms: _258  and  _261
REMARK   91  A    between atoms: _264  and  _266
REMARK   92  A    between atoms: _266  and  _267
REMARK   93  A    between atoms: _266  and  _269
REMARK   94  A    between atoms: _269  and  _270
REMARK   95  A    between atoms: _273  and  _275
REMARK   96  A    between atoms: _275  and  _276
REMARK   97  A    between atoms: _279  and  _281
REMARK   98  A    between atoms: _281  and  _282
REMARK   99  A    between atoms: _281  and  _284
REMARK  100  A    between atoms: _287  and  _289
REMARK  101  A    between atoms: _289  and  _290
REMARK  102  A    between atoms: _289  and  _292
REMARK  103  A    between atoms: _292  and  _293
REMARK  104  A    between atoms: _296  and  _298
REMARK  105  A    between atoms: _298  and  _299
REMARK  106  A    between atoms: _301  and  _303
REMARK  107  A    between atoms: _303  and  _304
REMARK  108  A    between atoms: _306  and  _308
REMARK  109  A    between atoms: _308  and  _309
REMARK  110  A    between atoms: _308  and  _311
REMARK  111  A    between atoms: _311  and  _312
REMARK  112  A    between atoms: _314  and  _316
REMARK  113  A    between atoms: _316  and  _317
REMARK  114  A    between atoms: _316  and  _319
REMARK  115  A    between atoms: _319  and  _320
REMARK  116  A    between atoms: _323  and  _325
REMARK  117  A    between atoms: _325  and  _326
REMARK  118  A    between atoms: _325  and  _328
REMARK  119  A    between atoms: _328  and  _329
REMARK  120  A    between atoms: _332  and  _334
REMARK  121  A    between atoms: _334  and  _335
REMARK  122  A    between atoms: _334  and  _337
REMARK  123  A    between atoms: _337  and  _338
REMARK  124  A    between atoms: _342  and  _343
REMARK  125  A    between atoms: _349  and  _350
REMARK  126  A    between atoms: _355  and  _357
REMARK  127  A    between atoms: _357  and  _358
REMARK  128  A    between atoms: _357  and  _360
REMARK  129  A    between atoms: _360  and  _361
REMARK  130  A    between atoms: _364  and  _366
REMARK  131  A    between atoms: _366  and  _367
REMARK  132  A    between atoms: _366  and  _369
REMARK  133  A    between atoms: _369  and  _370
REMARK  134  A    between atoms: _373  and  _375
REMARK  135  A    between atoms: _375  and  _376
REMARK  136  A    between atoms: _375  and  _378
REMARK  137  A    between atoms: _380  and  _382
REMARK  138  A    between atoms: _382  and  _383
REMARK  139  A    between atoms: _382  and  _385
REMARK  140  A    between atoms: _388  and  _390
REMARK  141  A    between atoms: _390  and  _391
REMARK  142  A    between atoms: _390  and  _393
REMARK  143  A    between atoms: _393  and  _394
REMARK  144  A    between atoms: _404  and  _406
REMARK  145  A    between atoms: _406  and  _407
REMARK  146  A    between atoms: _406  and  _409
REMARK  147  A    between atoms: _409  and  _410
REMARK  148  A    between atoms: _415  and  _417
REMARK  149  A    between atoms: _417  and  _418
REMARK  150  A    between atoms: _417  and  _420
REMARK  151  A    between atoms: _420  and  _421
REMARK  152  A    between atoms: _421  and  _422
REMARK  153  A    between atoms: _422  and  _423
REMARK                            x       y       z     vdW  Elec       q    Type
REMARK                         _______ _______ _______ _____ _____    ______ ____
ROOT
ATOM      1  CG  TYR A   1      23.021  -7.015  11.831  0.00  0.00    -0.020 A 
ATOM      2  CD2 TYR A   1      22.634  -7.082  13.224  0.00  0.00    -0.001 A 
ATOM      3  CE2 TYR A   1      21.866  -6.146  13.743  0.00  0.00    +0.036 A 
ATOM      4  CZ  TYR A   1      21.376  -5.144  12.910  0.00  0.00    +0.134 A 
ATOM      5  CE1 TYR A   1      21.753  -5.048  11.553  0.00  0.00    +0.036 A 
ATOM      6  CD1 TYR A   1      22.531  -6.017  11.033  0.00  0.00    -0.001 A 
ENDROOT
BRANCH   4   7
ATOM      7  OH  TYR A   1      20.538  -4.125  13.349  0.00  0.00    -0.506 OA
ATOM      8  HH  TYR A   1      20.317  -3.530  12.589  0.00  0.00    +0.292 HD
ENDBRANCH   4   7
BRANCH   1   9
ATOM      9  CB  TYR A   1      23.896  -8.133  11.222  0.00  0.00    +0.051 C 
BRANCH   9  10
ATOM     10  CA  TYR A   1      25.385  -7.828  11.374  0.00  0.00    +0.137 C 
BRANCH  10  11
ATOM     11  N   TYR A   1      25.798  -6.586  10.723  0.00  0.00    -0.239 NA
ATOM     12  H   TYR A   1      25.879  -6.575   9.686  0.00  0.00    +0.142 HD
ENDBRANCH  10  11
BRANCH  10  13
ATOM     13  C   TYR A   1      26.164  -8.997  10.705  0.00  0.00    +0.224 C 
ATOM     14  O   TYR A   1      25.719 -10.167  10.684  0.00  0.00    -0.287 OA
ENDBRANCH  10  13
ENDBRANCH   9  10
ENDBRANCH   1   9
TORSDOF 5
REMARK  Name = ../refined-set-2016/3s71/3s71_pocket.pdb
REMARK  153 active torsions:
REMARK  status: ('A' for Active; 'I' for Inactive)
REMARK    1  A    between atoms: _1  and  _5
REMARK    2  A    between atoms: _5  and  _6
REMARK    3  A    between atoms: _5  and  _8
REMARK    4  A    between atoms: _8  and  _9
REMARK    5  A    between atoms: _14  and  _16
REMARK    6  A    between atoms: _16  and  _17
REMARK    7  A    between atoms: _16  and  _19
REMARK    8  A    between atoms: _19  and  _20
REMARK    9  A    between atoms: _30  and  _32
REMARK   10  A    between atoms: _32  and  _33
REMARK   11  A    between atoms: _32  and  _35
REMARK   12  A    between atoms: _35  and  _36
REMARK   13  A    between atoms: _41  and  _42
REMARK   14  A    between atoms: _44  and  _46
REMARK   15  A    between atoms: _46  and  _47
REMARK   16  A    between atoms: _46  and  _49
REMARK   17  A    between atoms: _49  and  _50
REMARK   18  A    between atoms: _53  and  _54
REMARK   19  A    between atoms: _59  and  _61
REMARK   20  A    between atoms: _61  and  _62
REMARK   21  A    between atoms: _61  and  _64
REMARK   22  A    between atoms: _64  and  _65
REMARK   23  A    between atoms: _70  and  _72
REMARK   24  A    between atoms: _72  and  _73
REMARK   25  A    between atoms: _72  and  _75
REMARK   26  A    between atoms: _75  and  _76
REMARK   27  A    between atoms: _81  and  _83
REMARK   28  A    between atoms: _83  and  _84
REMARK   29  A    between atoms: _87  and  _89
REMARK   30  A    between atoms: _89  and  _90
REMARK   31  A    between atoms: _89  and  _92
REMARK   32  A    between atoms: _92  and  _93
REMARK   33  A    between atoms: _98  and  _100
REMARK   34  A    between atoms: _100  and  _101
REMARK   35  A    between atoms: _100  and  _103
REMARK   36  A    between atoms: _103  and  _104
REMARK   37  A    between atoms: _107  and  _109
REMARK   38  A    between atoms: _109  and  _110
REMARK   39  A    between atoms: _109  and  _112
REMARK   40  A    between atoms: _112  and  _113
REMARK   41  A    between atoms: _113  and  _114
REMARK   42  A    between atoms: _119  and  _121
REMARK   43  A    between atoms: _121  and  _122
REMARK   44  A    between atoms: _121  and  _124
REMARK   45  A    between atoms: _124  and  _125
REMARK   46  A    between atoms: _131  and  _133
REMARK   47  A    between atoms: _144  and  _147
REMARK   48  A    between atoms: _147  and  _148
REMARK   49  A    between atoms: _156  and  _157
REMARK   50  A    between atoms: _165  and  _167
REMARK   51  A    between atoms: _167  and  _168
REMARK   52  A    between atoms: _167  and  _170
REMARK   53  A    between atoms: _170  and  _171
REMARK   54  A    between atoms: _171  and  _172
REMARK   55  A    between atoms: _175  and  _177
REMARK   56  A    between atoms: _177  and  _178
REMARK   57  A    between atoms: _177  and  _180
REMARK   58  A    between atoms: _180  and  _181
REMARK   59  A    between atoms: _186  and  _188
REMARK   60  A    between atoms: _188  and  _189
REMARK   61  A    between atoms: _188  and  _191
REMARK   62  A    between atoms: _191  and  _192
REMARK   63  A    between atoms: _192  and  _193
REMARK   64  A    between atoms: _196  and  _198
REMARK   65  A    between atoms: _198  and  _199
REMARK   66  A    between atoms: _198  and  _201
REMARK   67  A    between atoms: _201  and  _202
REMARK   68  A    between atoms: _205  and  _207
REMARK   69  A    between atoms: _207  and  _208
REMARK   70  A    between atoms: _207  and  _210
REMARK   71  A    between atoms: _210  and  _211
REMARK   72  A    between atoms: _212  and  ZN_432
REMARK   73  A    between atoms: _216  and  _218
REMARK   74  A    between atoms: _218  and  _219
REMARK   75  A    between atoms: _218  and  _221
REMARK   76  A    between atoms: _221  and  _222
REMARK   77  A    between atoms: _225  and  _227
REMARK   78  A    between atoms: _227  and  _228
REMARK   79  A    between atoms: _227  and  _230
REMARK   80  A    between atoms: _233  and  _235
REMARK   81  A    between atoms: _235  and  _236
REMARK   82  A    between atoms: _235  and  _238
REMARK   83  A    between atoms: _238  and  _239
REMARK   84  A    between atoms: _244  and  _246
REMARK   85  A    between atoms: _246  and  _247
REMARK   86  A    between atoms: _246  and  _249
REMARK   87  A    between atoms: _249  and  _250
REMARK   88  A    between atoms: _256  and  _258
REMARK   89  A    between atoms: _258  and  _259
REMARK   90  A    between atoms: _258  and  _261
REMARK   91  A    between atoms: _264  and  _266
REMARK   92  A    between atoms: _266  and  _267
REMARK   93  A    between atoms: _266  and  _269
REMARK   94  A    between atoms: _269  and  _270
REMARK   95  A    between atoms: _273  and  _275
REMARK   96  A    between atoms: _275  and  _276
REMARK   97  A    between atoms: _279  and  _281
REMARK   98  A    between atoms: _281  and  _282
REMARK   99  A    between atoms: _281  and  _284
REMARK  100  A    between atoms: _287  and  _289
REMARK  101  A    between atoms: _289  and  _290
REMARK  102  A    between atoms: _289  and  _292
REMARK  103  A    between atoms: _292  and  _293
REMARK  104  A    between atoms: _296  and  _298
REMARK  105  A    between atoms: _298  and  _299
REMARK  106  A    between atoms: _301  and  _303
REMARK  107  A    between atoms: _303  and  _304
REMARK  108  A    between atoms: _306  and  _308
REMARK  109  A    between atoms: _308  and  _309
REMARK  110  A    between atoms: _308  and  _311
REMARK  111  A    between atoms: _311  and  _312
REMARK  112  A    between atoms: _314  and  _316
REMARK  113  A    between atoms: _316  and  _317
REMARK  114  A    between atoms: _316  and  _319
REMARK  115  A    between atoms: _319  and  _320
REMARK  116  A    between atoms: _323  and  _325
REMARK  117  A    between atoms: _325  and  _326
REMARK  118  A    between atoms: _325  and  _328
REMARK  119  A    between atoms: _328  and  _329
REMARK  120  A    between atoms: _332  and  _334
REMARK  121  A    between atoms: _334  and  _335
REMARK  122  A    between atoms: _334  and  _337
REMARK  123  A    between atoms: _337  and  _338
REMARK  124  A    between atoms: _342  and  _343
REMARK  125  A    between atoms: _349  and  _350
REMARK  126  A    between atoms: _355  and  _357
REMARK  127  A    between atoms: _357  and  _358
REMARK  128  A    between atoms: _357  and  _360
REMARK  129  A    between atoms: _360  and  _361
REMARK  130  A    between atoms: _364  and  _366
REMARK  131  A    between atoms: _366  and  _367
REMARK  132  A    between atoms: _366  and  _369
REMARK  133  A    between atoms: _369  and  _370
REMARK  134  A    between atoms: _373  and  _375
REMARK  135  A    between atoms: _375  and  _376
REMARK  136  A    between atoms: _375  and  _378
REMARK  137  A    between atoms: _380  and  _382
REMARK  138  A    between atoms: _382  and  _383
REMARK  139  A    between atoms: _382  and  _385
REMARK  140  A    between atoms: _388  and  _390
REMARK  141  A    between atoms: _390  and  _391
REMARK  142  A    between atoms: _390  and  _393
REMARK  143  A    between atoms: _393  and  _394
REMARK  144  A    between atoms: _404  and  _406
REMARK  145  A    between atoms: _406  and  _407
REMARK  146  A    between atoms: _406  and  _409
REMARK  147  A    between atoms: _409  and  _410
REMARK  148  A    between atoms: _415  and  _417
REMARK  149  A    between atoms: _417  and  _418
REMARK  150  A    between atoms: _417  and  _420
REMARK  151  A    between atoms: _420  and  _421
REMARK  152  A    between atoms: _421  and  _422
REMARK  153  A    between atoms: _422  and  _423
REMARK                            x       y       z     vdW  Elec       q    Type
REMARK                         _______ _______ _______ _____ _____    ______ ____
ROOT
ATOM      1  C   SER A   1      18.728  -2.911  23.202  0.00  0.00    +0.244 C 
ATOM      2  N   PRO A   2      18.047  -4.036  22.982  0.00  0.00    -0.273 N 
ATOM      3  CA  PRO A   2      16.885  -4.601  23.697  0.00  0.00    +0.140 C 
ATOM      4  CB  PRO A   2      16.351  -5.656  22.706  0.00  0.00    +0.030 C 
ATOM      5  CG  PRO A   2      17.691  -6.207  22.158  0.00  0.00    +0.024 C 
ATOM      6  CD  PRO A   2      18.564  -4.975  21.972  0.00  0.00    +0.094 C 
ATOM      7  O   SER A   1      19.742  -2.582  22.583  0.00  0.00    -0.273 OA
ENDROOT
BRANCH   3   8
ATOM      8  C   PRO A   2      17.287  -5.275  25.018  0.00  0.00    +0.227 C 
ATOM      9  O   PRO A   2      18.493  -5.268  25.365  0.00  0.00    -0.286 OA
ENDBRANCH   3   8
BRANCH   1  10
ATOM     10  CA  SER A   1      18.199  -2.049  24.373  0.00  0.00    +0.175 C 
BRANCH  10  11
ATOM     11  N   SER A   1      19.249  -1.147  24.840  0.00  0.00    -0.236 NA
ATOM     12  H   SER A   1      19.718  -0.529  24.148  0.00  0.00    +0.142 HD
ENDBRANCH  10  11
BRANCH  10  13
ATOM     13  CB  SER A   1      17.015  -1.181  23.836  0.00  0.00    +0.163 C 
BRANCH  13  14
ATOM     14  OG  SER A   1      16.391  -0.454  24.928  0.00  0.00    -0.380 OA
ATOM     15  H   SER A   1      16.045  -1.097  25.596  0.00  0.00    +0.211 HD
ENDBRANCH  13  14
ENDBRANCH  10  13
ENDBRANCH   1  10
TORSDOF 5
REMARK  Name = ../refined-set-2016/3s71/3s71_pocket.pdb
REMARK  153 active torsions:
REMARK  status: ('A' for Active; 'I' for Inactive)
REMARK    1  A    between atoms: _1  and  _5
REMARK    2  A    between atoms: _5  and  _6
REMARK    3  A    between atoms: _5  and  _8
REMARK    4  A    between atoms: _8  and  _9
REMARK    5  A    between atoms: _14  and  _16
REMARK    6  A    between atoms: _16  and  _17
REMARK    7  A    between atoms: _16  and  _19
REMARK    8  A    between atoms: _19  and  _20
REMARK    9  A    between atoms: _30  and  _32
REMARK   10  A    between atoms: _32  and  _33
REMARK   11  A    between atoms: _32  and  _35
REMARK   12  A    between atoms: _35  and  _36
REMARK   13  A    between atoms: _41  and  _42
REMARK   14  A    between atoms: _44  and  _46
REMARK   15  A    between atoms: _46  and  _47
REMARK   16  A    between atoms: _46  and  _49
REMARK   17  A    between atoms: _49  and  _50
REMARK   18  A    between atoms: _53  and  _54
REMARK   19  A    between atoms: _59  and  _61
REMARK   20  A    between atoms: _61  and  _62
REMARK   21  A    between atoms: _61  and  _64
REMARK   22  A    between atoms: _64  and  _65
REMARK   23  A    between atoms: _70  and  _72
REMARK   24  A    between atoms: _72  and  _73
REMARK   25  A    between atoms: _72  and  _75
REMARK   26  A    between atoms: _75  and  _76
REMARK   27  A    between atoms: _81  and  _83
REMARK   28  A    between atoms: _83  and  _84
REMARK   29  A    between atoms: _87  and  _89
REMARK   30  A    between atoms: _89  and  _90
REMARK   31  A    between atoms: _89  and  _92
REMARK   32  A    between atoms: _92  and  _93
REMARK   33  A    between atoms: _98  and  _100
REMARK   34  A    between atoms: _100  and  _101
REMARK   35  A    between atoms: _100  and  _103
REMARK   36  A    between atoms: _103  and  _104
REMARK   37  A    between atoms: _107  and  _109
REMARK   38  A    between atoms: _109  and  _110
REMARK   39  A    between atoms: _109  and  _112
REMARK   40  A    between atoms: _112  and  _113
REMARK   41  A    between atoms: _113  and  _114
REMARK   42  A    between atoms: _119  and  _121
REMARK   43  A    between atoms: _121  and  _122
REMARK   44  A    between atoms: _121  and  _124
REMARK   45  A    between atoms: _124  and  _125
REMARK   46  A    between atoms: _131  and  _133
REMARK   47  A    between atoms: _144  and  _147
REMARK   48  A    between atoms: _147  and  _148
REMARK   49  A    between atoms: _156  and  _157
REMARK   50  A    between atoms: _165  and  _167
REMARK   51  A    between atoms: _167  and  _168
REMARK   52  A    between atoms: _167  and  _170
REMARK   53  A    between atoms: _170  and  _171
REMARK   54  A    between atoms: _171  and  _172
REMARK   55  A    between atoms: _175  and  _177
REMARK   56  A    between atoms: _177  and  _178
REMARK   57  A    between atoms: _177  and  _180
REMARK   58  A    between atoms: _180  and  _181
REMARK   59  A    between atoms: _186  and  _188
REMARK   60  A    between atoms: _188  and  _189
REMARK   61  A    between atoms: _188  and  _191
REMARK   62  A    between atoms: _191  and  _192
REMARK   63  A    between atoms: _192  and  _193
REMARK   64  A    between atoms: _196  and  _198
REMARK   65  A    between atoms: _198  and  _199
REMARK   66  A    between atoms: _198  and  _201
REMARK   67  A    between atoms: _201  and  _202
REMARK   68  A    between atoms: _205  and  _207
REMARK   69  A    between atoms: _207  and  _208
REMARK   70  A    between atoms: _207  and  _210
REMARK   71  A    between atoms: _210  and  _211
REMARK   72  A    between atoms: _212  and  ZN_432
REMARK   73  A    between atoms: _216  and  _218
REMARK   74  A    between atoms: _218  and  _219
REMARK   75  A    between atoms: _218  and  _221
REMARK   76  A    between atoms: _221  and  _222
REMARK   77  A    between atoms: _225  and  _227
REMARK   78  A    between atoms: _227  and  _228
REMARK   79  A    between atoms: _227  and  _230
REMARK   80  A    between atoms: _233  and  _235
REMARK   81  A    between atoms: _235  and  _236
REMARK   82  A    between atoms: _235  and  _238
REMARK   83  A    between atoms: _238  and  _239
REMARK   84  A    between atoms: _244  and  _246
REMARK   85  A    between atoms: _246  and  _247
REMARK   86  A    between atoms: _246  and  _249
REMARK   87  A    between atoms: _249  and  _250
REMARK   88  A    between atoms: _256  and  _258
REMARK   89  A    between atoms: _258  and  _259
REMARK   90  A    between atoms: _258  and  _261
REMARK   91  A    between atoms: _264  and  _266
REMARK   92  A    between atoms: _266  and  _267
REMARK   93  A    between atoms: _266  and  _269
REMARK   94  A    between atoms: _269  and  _270
REMARK   95  A    between atoms: _273  and  _275
REMARK   96  A    between atoms: _275  and  _276
REMARK   97  A    between atoms: _279  and  _281
REMARK   98  A    between atoms: _281  and  _282
REMARK   99  A    between atoms: _281  and  _284
REMARK  100  A    between atoms: _287  and  _289
REMARK  101  A    between atoms: _289  and  _290
REMARK  102  A    between atoms: _289  and  _292
REMARK  103  A    between atoms: _292  and  _293
REMARK  104  A    between atoms: _296  and  _298
REMARK  105  A    between atoms: _298  and  _299
REMARK  106  A    between atoms: _301  and  _303
REMARK  107  A    between atoms: _303  and  _304
REMARK  108  A    between atoms: _306  and  _308
REMARK  109  A    between atoms: _308  and  _309
REMARK  110  A    between atoms: _308  and  _311
REMARK  111  A    between atoms: _311  and  _312
REMARK  112  A    between atoms: _314  and  _316
REMARK  113  A    between atoms: _316  and  _317
REMARK  114  A    between atoms: _316  and  _319
REMARK  115  A    between atoms: _319  and  _320
REMARK  116  A    between atoms: _323  and  _325
REMARK  117  A    between atoms: _325  and  _326
REMARK  118  A    between atoms: _325  and  _328
REMARK  119  A    between atoms: _328  and  _329
REMARK  120  A    between atoms: _332  and  _334
REMARK  121  A    between atoms: _334  and  _335
REMARK  122  A    between atoms: _334  and  _337
REMARK  123  A    between atoms: _337  and  _338
REMARK  124  A    between atoms: _342  and  _343
REMARK  125  A    between atoms: _349  and  _350
REMARK  126  A    between atoms: _355  and  _357
REMARK  127  A    between atoms: _357  and  _358
REMARK  128  A    between atoms: _357  and  _360
REMARK  129  A    between atoms: _360  and  _361
REMARK  130  A    between atoms: _364  and  _366
REMARK  131  A    between atoms: _366  and  _367
REMARK  132  A    between atoms: _366  and  _369
REMARK  133  A    between atoms: _369  and  _370
REMARK  134  A    between atoms: _373  and  _375
REMARK  135  A    between atoms: _375  and  _376
REMARK  136  A    between atoms: _375  and  _378
REMARK  137  A    between atoms: _380  and  _382
REMARK  138  A    between atoms: _382  and  _383
REMARK  139  A    between atoms: _382  and  _385
REMARK  140  A    between atoms: _388  and  _390
REMARK  141  A    between atoms: _390  and  _391
REMARK  142  A    between atoms: _390  and  _393
REMARK  143  A    between atoms: _393  and  _394
REMARK  144  A    between atoms: _404  and  _406
REMARK  145  A    between atoms: _406  and  _407
REMARK  146  A    between atoms: _406  and  _409
REMARK  147  A    between atoms: _409  and  _410
REMARK  148  A    between atoms: _415  and  _417
REMARK  149  A    between atoms: _417  and  _418
REMARK  150  A    between atoms: _417  and  _420
REMARK  151  A    between atoms: _420  and  _421
REMARK  152  A    between atoms: _421  and  _422
REMARK  153  A    between atoms: _422  and  _423
REMARK                            x       y       z     vdW  Elec       q    Type
REMARK                         _______ _______ _______ _____ _____    ______ ____
ROOT
ATOM      1  CB  ASN A   1      18.445   1.994   5.335  0.00  0.00    +0.110 C 
ENDROOT
BRANCH   1   2
ATOM      2  CG  ASN A   1      18.065   1.151   6.503  0.00  0.00    +0.221 C 
ATOM      3  ND2 ASN A   1      17.291   1.712   7.405  0.00  0.00    -0.329 N 
ATOM      4 HD21 ASN A   1      16.952   1.157   8.217  0.00  0.00    +0.145 HD
ATOM      5 HD22 ASN A   1      17.017   2.711   7.307  0.00  0.00    +0.145 HD
ATOM      6  OD1 ASN A   1      18.403  -0.015   6.589  0.00  0.00    -0.275 OA
ENDBRANCH   1   2
BRANCH   1   7
ATOM      7  CA  ASN A   1      18.795   1.126   4.106  0.00  0.00    +0.142 C 
BRANCH   7   8
ATOM      8  N   ASN A   1      17.674   0.273   3.668  0.00  0.00    -0.239 NA
ATOM      9  H   ASN A   1      17.102  -0.230   4.376  0.00  0.00    +0.142 HD
ENDBRANCH   7   8
BRANCH   7  10
ATOM     10  C   ASN A   1      20.058   0.316   4.375  0.00  0.00    +0.225 C 
ATOM     11  O   ASN A   1      21.063   0.870   4.925  0.00  0.00    -0.287 OA
ENDBRANCH   7  10
ENDBRANCH   1   7
TORSDOF 4
REMARK  Name = ../refined-set-2016/3s71/3s71_pocket.pdb
REMARK  153 active torsions:
REMARK  status: ('A' for Active; 'I' for Inactive)
REMARK    1  A    between atoms: _1  and  _5
REMARK    2  A    between atoms: _5  and  _6
REMARK    3  A    between atoms: _5  and  _8
REMARK    4  A    between atoms: _8  and  _9
REMARK    5  A    between atoms: _14  and  _16
REMARK    6  A    between atoms: _16  and  _17
REMARK    7  A    between atoms: _16  and  _19
REMARK    8  A    between atoms: _19  and  _20
REMARK    9  A    between atoms: _30  and  _32
REMARK   10  A    between atoms: _32  and  _33
REMARK   11  A    between atoms: _32  and  _35
REMARK   12  A    between atoms: _35  and  _36
REMARK   13  A    between atoms: _41  and  _42
REMARK   14  A    between atoms: _44  and  _46
REMARK   15  A    between atoms: _46  and  _47
REMARK   16  A    between atoms: _46  and  _49
REMARK   17  A    between atoms: _49  and  _50
REMARK   18  A    between atoms: _53  and  _54
REMARK   19  A    between atoms: _59  and  _61
REMARK   20  A    between atoms: _61  and  _62
REMARK   21  A    between atoms: _61  and  _64
REMARK   22  A    between atoms: _64  and  _65
REMARK   23  A    between atoms: _70  and  _72
REMARK   24  A    between atoms: _72  and  _73
REMARK   25  A    between atoms: _72  and  _75
REMARK   26  A    between atoms: _75  and  _76
REMARK   27  A    between atoms: _81  and  _83
REMARK   28  A    between atoms: _83  and  _84
REMARK   29  A    between atoms: _87  and  _89
REMARK   30  A    between atoms: _89  and  _90
REMARK   31  A    between atoms: _89  and  _92
REMARK   32  A    between atoms: _92  and  _93
REMARK   33  A    between atoms: _98  and  _100
REMARK   34  A    between atoms: _100  and  _101
REMARK   35  A    between atoms: _100  and  _103
REMARK   36  A    between atoms: _103  and  _104
REMARK   37  A    between atoms: _107  and  _109
REMARK   38  A    between atoms: _109  and  _110
REMARK   39  A    between atoms: _109  and  _112
REMARK   40  A    between atoms: _112  and  _113
REMARK   41  A    between atoms: _113  and  _114
REMARK   42  A    between atoms: _119  and  _121
REMARK   43  A    between atoms: _121  and  _122
REMARK   44  A    between atoms: _121  and  _124
REMARK   45  A    between atoms: _124  and  _125
REMARK   46  A    between atoms: _131  and  _133
REMARK   47  A    between atoms: _144  and  _147
REMARK   48  A    between atoms: _147  and  _148
REMARK   49  A    between atoms: _156  and  _157
REMARK   50  A    between atoms: _165  and  _167
REMARK   51  A    between atoms: _167  and  _168
REMARK   52  A    between atoms: _167  and  _170
REMARK   53  A    between atoms: _170  and  _171
REMARK   54  A    between atoms: _171  and  _172
REMARK   55  A    between atoms: _175  and  _177
REMARK   56  A    between atoms: _177  and  _178
REMARK   57  A    between atoms: _177  and  _180
REMARK   58  A    between atoms: _180  and  _181
REMARK   59  A    between atoms: _186  and  _188
REMARK   60  A    between atoms: _188  and  _189
REMARK   61  A    between atoms: _188  and  _191
REMARK   62  A    between atoms: _191  and  _192
REMARK   63  A    between atoms: _192  and  _193
REMARK   64  A    between atoms: _196  and  _198
REMARK   65  A    between atoms: _198  and  _199
REMARK   66  A    between atoms: _198  and  _201
REMARK   67  A    between atoms: _201  and  _202
REMARK   68  A    between atoms: _205  and  _207
REMARK   69  A    between atoms: _207  and  _208
REMARK   70  A    between atoms: _207  and  _210
REMARK   71  A    between atoms: _210  and  _211
REMARK   72  A    between atoms: _212  and  ZN_432
REMARK   73  A    between atoms: _216  and  _218
REMARK   74  A    between atoms: _218  and  _219
REMARK   75  A    between atoms: _218  and  _221
REMARK   76  A    between atoms: _221  and  _222
REMARK   77  A    between atoms: _225  and  _227
REMARK   78  A    between atoms: _227  and  _228
REMARK   79  A    between atoms: _227  and  _230
REMARK   80  A    between atoms: _233  and  _235
REMARK   81  A    between atoms: _235  and  _236
REMARK   82  A    between atoms: _235  and  _238
REMARK   83  A    between atoms: _238  and  _239
REMARK   84  A    between atoms: _244  and  _246
REMARK   85  A    between atoms: _246  and  _247
REMARK   86  A    between atoms: _246  and  _249
REMARK   87  A    between atoms: _249  and  _250
REMARK   88  A    between atoms: _256  and  _258
REMARK   89  A    between atoms: _258  and  _259
REMARK   90  A    between atoms: _258  and  _261
REMARK   91  A    between atoms: _264  and  _266
REMARK   92  A    between atoms: _266  and  _267
REMARK   93  A    between atoms: _266  and  _269
REMARK   94  A    between atoms: _269  and  _270
REMARK   95  A    between atoms: _273  and  _275
REMARK   96  A    between atoms: _275  and  _276
REMARK   97  A    between atoms: _279  and  _281
REMARK   98  A    between atoms: _281  and  _282
REMARK   99  A    between atoms: _281  and  _284
REMARK  100  A    between atoms: _287  and  _289
REMARK  101  A    between atoms: _289  and  _290
REMARK  102  A    between atoms: _289  and  _292
REMARK  103  A    between atoms: _292  and  _293
REMARK  104  A    between atoms: _296  and  _298
REMARK  105  A    between atoms: _298  and  _299
REMARK  106  A    between atoms: _301  and  _303
REMARK  107  A    between atoms: _303  and  _304
REMARK  108  A    between atoms: _306  and  _308
REMARK  109  A    between atoms: _308  and  _309
REMARK  110  A    between atoms: _308  and  _311
REMARK  111  A    between atoms: _311  and  _312
REMARK  112  A    between atoms: _314  and  _316
REMARK  113  A    between atoms: _316  and  _317
REMARK  114  A    between atoms: _316  and  _319
REMARK  115  A    between atoms: _319  and  _320
REMARK  116  A    between atoms: _323  and  _325
REMARK  117  A    between atoms: _325  and  _326
REMARK  118  A    between atoms: _325  and  _328
REMARK  119  A    between atoms: _328  and  _329
REMARK  120  A    between atoms: _332  and  _334
REMARK  121  A    between atoms: _334  and  _335
REMARK  122  A    between atoms: _334  and  _337
REMARK  123  A    between atoms: _337  and  _338
REMARK  124  A    between atoms: _342  and  _343
REMARK  125  A    between atoms: _349  and  _350
REMARK  126  A    between atoms: _355  and  _357
REMARK  127  A    between atoms: _357  and  _358
REMARK  128  A    between atoms: _357  and  _360
REMARK  129  A    between atoms: _360  and  _361
REMARK  130  A    between atoms: _364  and  _366
REMARK  131  A    between atoms: _366  and  _367
REMARK  132  A    between atoms: _366  and  _369
REMARK  133  A    between atoms: _369  and  _370
REMARK  134  A    between atoms: _373  and  _375
REMARK  135  A    between atoms: _375  and  _376
REMARK  136  A    between atoms: _375  and  _378
REMARK  137  A    between atoms: _380  and  _382
REMARK  138  A    between atoms: _382  and  _383
REMARK  139  A    between atoms: _382  and  _385
REMARK  140  A    between atoms: _388  and  _390
REMARK  141  A    between atoms: _390  and  _391
REMARK  142  A    between atoms: _390  and  _393
REMARK  143  A    between atoms: _393  and  _394
REMARK  144  A    between atoms: _404  and  _406
REMARK  145  A    between atoms: _406  and  _407
REMARK  146  A    between atoms: _406  and  _409
REMARK  147  A    between atoms: _409  and  _410
REMARK  148  A    between atoms: _415  and  _417
REMARK  149  A    between atoms: _417  and  _418
REMARK  150  A    between atoms: _417  and  _420
REMARK  151  A    between atoms: _420  and  _421
REMARK  152  A    between atoms: _421  and  _422
REMARK  153  A    between atoms: _422  and  _423
REMARK                            x       y       z     vdW  Elec       q    Type
REMARK                         _______ _______ _______ _____ _____    ______ ____
ROOT
ATOM      1  CA  HIS A   1      20.275  -2.952   7.681  0.00  0.00    +0.151 C 
ENDROOT
BRANCH   1   2
ATOM      2  C   HIS A   1      18.875  -3.446   7.942  0.00  0.00    +0.239 C 
ATOM      3  O   HIS A   1      18.707  -4.401   8.686  0.00  0.00    -0.274 OA
ATOM      4  N   ALA A   2      17.838  -2.874   7.335  0.00  0.00    -0.298 N 
ATOM      5  H   ALA A   2      18.038  -2.029   6.763  0.00  0.00    +0.150 HD
BRANCH   4   6
ATOM      6  CA  ALA A   2      16.446  -3.316   7.392  0.00  0.00    +0.137 C 
ATOM      7  CB  ALA A   2      15.808  -3.038   8.759  0.00  0.00    +0.030 C 
BRANCH   6   8
ATOM      8  C   ALA A   2      15.749  -2.562   6.244  0.00  0.00    +0.227 C 
ATOM      9  O   ALA A   2      16.417  -1.925   5.392  0.00  0.00    -0.286 OA
ENDBRANCH   6   8
ENDBRANCH   4   6
ENDBRANCH   1   2
BRANCH   1  10
ATOM     10  N   HIS A   1      20.379  -2.188   6.410  0.00  0.00    -0.238 NA
ATOM     11  H   HIS A   1      19.752  -1.379   6.228  0.00  0.00    +0.142 HD
ENDBRANCH   1  10
BRANCH   1  12
ATOM     12  CB  HIS A   1      20.892  -2.197   8.896  0.00  0.00    +0.074 C 
BRANCH  12  13
ATOM     13  CG  HIS A   1      20.444  -0.757   9.077  0.00  0.00    +0.082 A 
ATOM     14  CD2 HIS A   1      19.448  -0.242   9.852  0.00  0.00    +0.115 A 
ATOM     15  NE2 HIS A   1      19.506   1.105   9.759  0.00  0.00    -0.221 NA
ATOM     16  CE1 HIS A   1      20.472   1.436   8.904  0.00  0.00    +0.199 A 
ATOM     17  ND1 HIS A   1      21.083   0.337   8.486  0.00  0.00    -0.227 NA
ENDBRANCH  12  13
ENDBRANCH   1  12
TORSDOF 6
REMARK  Name = ../refined-set-2016/3s71/3s71_pocket.pdb
REMARK  153 active torsions:
REMARK  status: ('A' for Active; 'I' for Inactive)
REMARK    1  A    between atoms: _1  and  _5
REMARK    2  A    between atoms: _5  and  _6
REMARK    3  A    between atoms: _5  and  _8
REMARK    4  A    between atoms: _8  and  _9
REMARK    5  A    between atoms: _14  and  _16
REMARK    6  A    between atoms: _16  and  _17
REMARK    7  A    between atoms: _16  and  _19
REMARK    8  A    between atoms: _19  and  _20
REMARK    9  A    between atoms: _30  and  _32
REMARK   10  A    between atoms: _32  and  _33
REMARK   11  A    between atoms: _32  and  _35
REMARK   12  A    between atoms: _35  and  _36
REMARK   13  A    between atoms: _41  and  _42
REMARK   14  A    between atoms: _44  and  _46
REMARK   15  A    between atoms: _46  and  _47
REMARK   16  A    between atoms: _46  and  _49
REMARK   17  A    between atoms: _49  and  _50
REMARK   18  A    between atoms: _53  and  _54
REMARK   19  A    between atoms: _59  and  _61
REMARK   20  A    between atoms: _61  and  _62
REMARK   21  A    between atoms: _61  and  _64
REMARK   22  A    between atoms: _64  and  _65
REMARK   23  A    between atoms: _70  and  _72
REMARK   24  A    between atoms: _72  and  _73
REMARK   25  A    between atoms: _72  and  _75
REMARK   26  A    between atoms: _75  and  _76
REMARK   27  A    between atoms: _81  and  _83
REMARK   28  A    between atoms: _83  and  _84
REMARK   29  A    between atoms: _87  and  _89
REMARK   30  A    between atoms: _89  and  _90
REMARK   31  A    between atoms: _89  and  _92
REMARK   32  A    between atoms: _92  and  _93
REMARK   33  A    between atoms: _98  and  _100
REMARK   34  A    between atoms: _100  and  _101
REMARK   35  A    between atoms: _100  and  _103
REMARK   36  A    between atoms: _103  and  _104
REMARK   37  A    between atoms: _107  and  _109
REMARK   38  A    between atoms: _109  and  _110
REMARK   39  A    between atoms: _109  and  _112
REMARK   40  A    between atoms: _112  and  _113
REMARK   41  A    between atoms: _113  and  _114
REMARK   42  A    between atoms: _119  and  _121
REMARK   43  A    between atoms: _121  and  _122
REMARK   44  A    between atoms: _121  and  _124
REMARK   45  A    between atoms: _124  and  _125
REMARK   46  A    between atoms: _131  and  _133
REMARK   47  A    between atoms: _144  and  _147
REMARK   48  A    between atoms: _147  and  _148
REMARK   49  A    between atoms: _156  and  _157
REMARK   50  A    between atoms: _165  and  _167
REMARK   51  A    between atoms: _167  and  _168
REMARK   52  A    between atoms: _167  and  _170
REMARK   53  A    between atoms: _170  and  _171
REMARK   54  A    between atoms: _171  and  _172
REMARK   55  A    between atoms: _175  and  _177
REMARK   56  A    between atoms: _177  and  _178
REMARK   57  A    between atoms: _177  and  _180
REMARK   58  A    between atoms: _180  and  _181
REMARK   59  A    between atoms: _186  and  _188
REMARK   60  A    between atoms: _188  and  _189
REMARK   61  A    between atoms: _188  and  _191
REMARK   62  A    between atoms: _191  and  _192
REMARK   63  A    between atoms: _192  and  _193
REMARK   64  A    between atoms: _196  and  _198
REMARK   65  A    between atoms: _198  and  _199
REMARK   66  A    between atoms: _198  and  _201
REMARK   67  A    between atoms: _201  and  _202
REMARK   68  A    between atoms: _205  and  _207
REMARK   69  A    between atoms: _207  and  _208
REMARK   70  A    between atoms: _207  and  _210
REMARK   71  A    between atoms: _210  and  _211
REMARK   72  A    between atoms: _212  and  ZN_432
REMARK   73  A    between atoms: _216  and  _218
REMARK   74  A    between atoms: _218  and  _219
REMARK   75  A    between atoms: _218  and  _221
REMARK   76  A    between atoms: _221  and  _222
REMARK   77  A    between atoms: _225  and  _227
REMARK   78  A    between atoms: _227  and  _228
REMARK   79  A    between atoms: _227  and  _230
REMARK   80  A    between atoms: _233  and  _235
REMARK   81  A    between atoms: _235  and  _236
REMARK   82  A    between atoms: _235  and  _238
REMARK   83  A    between atoms: _238  and  _239
REMARK   84  A    between atoms: _244  and  _246
REMARK   85  A    between atoms: _246  and  _247
REMARK   86  A    between atoms: _246  and  _249
REMARK   87  A    between atoms: _249  and  _250
REMARK   88  A    between atoms: _256  and  _258
REMARK   89  A    between atoms: _258  and  _259
REMARK   90  A    between atoms: _258  and  _261
REMARK   91  A    between atoms: _264  and  _266
REMARK   92  A    between atoms: _266  and  _267
REMARK   93  A    between atoms: _266  and  _269
REMARK   94  A    between atoms: _269  and  _270
REMARK   95  A    between atoms: _273  and  _275
REMARK   96  A    between atoms: _275  and  _276
REMARK   97  A    between atoms: _279  and  _281
REMARK   98  A    between atoms: _281  and  _282
REMARK   99  A    between atoms: _281  and  _284
REMARK  100  A    between atoms: _287  and  _289
REMARK  101  A    between atoms: _289  and  _290
REMARK  102  A    between atoms: _289  and  _292
REMARK  103  A    between atoms: _292  and  _293
REMARK  104  A    between atoms: _296  and  _298
REMARK  105  A    between atoms: _298  and  _299
REMARK  106  A    between atoms: _301  and  _303
REMARK  107  A    between atoms: _303  and  _304
REMARK  108  A    between atoms: _306  and  _308
REMARK  109  A    between atoms: _308  and  _309
REMARK  110  A    between atoms: _308  and  _311
REMARK  111  A    between atoms: _311  and  _312
REMARK  112  A    between atoms: _314  and  _316
REMARK  113  A    between atoms: _316  and  _317
REMARK  114  A    between atoms: _316  and  _319
REMARK  115  A    between atoms: _319  and  _320
REMARK  116  A    between atoms: _323  and  _325
REMARK  117  A    between atoms: _325  and  _326
REMARK  118  A    between atoms: _325  and  _328
REMARK  119  A    between atoms: _328  and  _329
REMARK  120  A    between atoms: _332  and  _334
REMARK  121  A    between atoms: _334  and  _335
REMARK  122  A    between atoms: _334  and  _337
REMARK  123  A    between atoms: _337  and  _338
REMARK  124  A    between atoms: _342  and  _343
REMARK  125  A    between atoms: _349  and  _350
REMARK  126  A    between atoms: _355  and  _357
REMARK  127  A    between atoms: _357  and  _358
REMARK  128  A    between atoms: _357  and  _360
REMARK  129  A    between atoms: _360  and  _361
REMARK  130  A    between atoms: _364  and  _366
REMARK  131  A    between atoms: _366  and  _367
REMARK  132  A    between atoms: _366  and  _369
REMARK  133  A    between atoms: _369  and  _370
REMARK  134  A    between atoms: _373  and  _375
REMARK  135  A    between atoms: _375  and  _376
REMARK  136  A    between atoms: _375  and  _378
REMARK  137  A    between atoms: _380  and  _382
REMARK  138  A    between atoms: _382  and  _383
REMARK  139  A    between atoms: _382  and  _385
REMARK  140  A    between atoms: _388  and  _390
REMARK  141  A    between atoms: _390  and  _391
REMARK  142  A    between atoms: _390  and  _393
REMARK  143  A    between atoms: _393  and  _394
REMARK  144  A    between atoms: _404  and  _406
REMARK  145  A    between atoms: _406  and  _407
REMARK  146  A    between atoms: _406  and  _409
REMARK  147  A    between atoms: _409  and  _410
REMARK  148  A    between atoms: _415  and  _417
REMARK  149  A    between atoms: _417  and  _418
REMARK  150  A    between atoms: _417  and  _420
REMARK  151  A    between atoms: _420  and  _421
REMARK  152  A    between atoms: _421  and  _422
REMARK  153  A    between atoms: _422  and  _423
REMARK                            x       y       z     vdW  Elec       q    Type
REMARK                         _______ _______ _______ _____ _____    ______ ____
ROOT
ATOM      1  CB  ASN A   1      12.604   2.604   6.911  0.00  0.00    +0.110 C 
ENDROOT
BRANCH   1   2
ATOM      2  CG  ASN A   1      13.625   2.416   8.000  0.00  0.00    +0.221 C 
ATOM      3  OD1 ASN A   1      13.764   1.300   8.567  0.00  0.00    -0.275 OA
ATOM      4  ND2 ASN A   1      14.452   3.436   8.233  0.00  0.00    -0.329 N 
ATOM      5 HD21 ASN A   1      15.241   3.323   8.901  0.00  0.00    +0.145 HD
ATOM      6 HD22 ASN A   1      14.308   4.344   7.747  0.00  0.00    +0.145 HD
ENDBRANCH   1   2
BRANCH   1   7
ATOM      7  CA  ASN A   1      11.848   1.315   6.562  0.00  0.00    +0.142 C 
BRANCH   7   8
ATOM      8  N   ASN A   1      12.683   0.365   5.876  0.00  0.00    -0.239 NA
ATOM      9  H   ASN A   1      13.233   0.695   5.058  0.00  0.00    +0.142 HD
ENDBRANCH   7   8
BRANCH   7  10
ATOM     10  C   ASN A   1      10.648   1.691   5.751  0.00  0.00    +0.225 C 
ATOM     11  O   ASN A   1      10.835   2.146   4.600  0.00  0.00    -0.287 OA
ENDBRANCH   7  10
ENDBRANCH   1   7
TORSDOF 4
REMARK  Name = ../refined-set-2016/3s71/3s71_pocket.pdb
REMARK  153 active torsions:
REMARK  status: ('A' for Active; 'I' for Inactive)
REMARK    1  A    between atoms: _1  and  _5
REMARK    2  A    between atoms: _5  and  _6
REMARK    3  A    between atoms: _5  and  _8
REMARK    4  A    between atoms: _8  and  _9
REMARK    5  A    between atoms: _14  and  _16
REMARK    6  A    between atoms: _16  and  _17
REMARK    7  A    between atoms: _16  and  _19
REMARK    8  A    between atoms: _19  and  _20
REMARK    9  A    between atoms: _30  and  _32
REMARK   10  A    between atoms: _32  and  _33
REMARK   11  A    between atoms: _32  and  _35
REMARK   12  A    between atoms: _35  and  _36
REMARK   13  A    between atoms: _41  and  _42
REMARK   14  A    between atoms: _44  and  _46
REMARK   15  A    between atoms: _46  and  _47
REMARK   16  A    between atoms: _46  and  _49
REMARK   17  A    between atoms: _49  and  _50
REMARK   18  A    between atoms: _53  and  _54
REMARK   19  A    between atoms: _59  and  _61
REMARK   20  A    between atoms: _61  and  _62
REMARK   21  A    between atoms: _61  and  _64
REMARK   22  A    between atoms: _64  and  _65
REMARK   23  A    between atoms: _70  and  _72
REMARK   24  A    between atoms: _72  and  _73
REMARK   25  A    between atoms: _72  and  _75
REMARK   26  A    between atoms: _75  and  _76
REMARK   27  A    between atoms: _81  and  _83
REMARK   28  A    between atoms: _83  and  _84
REMARK   29  A    between atoms: _87  and  _89
REMARK   30  A    between atoms: _89  and  _90
REMARK   31  A    between atoms: _89  and  _92
REMARK   32  A    between atoms: _92  and  _93
REMARK   33  A    between atoms: _98  and  _100
REMARK   34  A    between atoms: _100  and  _101
REMARK   35  A    between atoms: _100  and  _103
REMARK   36  A    between atoms: _103  and  _104
REMARK   37  A    between atoms: _107  and  _109
REMARK   38  A    between atoms: _109  and  _110
REMARK   39  A    between atoms: _109  and  _112
REMARK   40  A    between atoms: _112  and  _113
REMARK   41  A    between atoms: _113  and  _114
REMARK   42  A    between atoms: _119  and  _121
REMARK   43  A    between atoms: _121  and  _122
REMARK   44  A    between atoms: _121  and  _124
REMARK   45  A    between atoms: _124  and  _125
REMARK   46  A    between atoms: _131  and  _133
REMARK   47  A    between atoms: _144  and  _147
REMARK   48  A    between atoms: _147  and  _148
REMARK   49  A    between atoms: _156  and  _157
REMARK   50  A    between atoms: _165  and  _167
REMARK   51  A    between atoms: _167  and  _168
REMARK   52  A    between atoms: _167  and  _170
REMARK   53  A    between atoms: _170  and  _171
REMARK   54  A    between atoms: _171  and  _172
REMARK   55  A    between atoms: _175  and  _177
REMARK   56  A    between atoms: _177  and  _178
REMARK   57  A    between atoms: _177  and  _180
REMARK   58  A    between atoms: _180  and  _181
REMARK   59  A    between atoms: _186  and  _188
REMARK   60  A    between atoms: _188  and  _189
REMARK   61  A    between atoms: _188  and  _191
REMARK   62  A    between atoms: _191  and  _192
REMARK   63  A    between atoms: _192  and  _193
REMARK   64  A    between atoms: _196  and  _198
REMARK   65  A    between atoms: _198  and  _199
REMARK   66  A    between atoms: _198  and  _201
REMARK   67  A    between atoms: _201  and  _202
REMARK   68  A    between atoms: _205  and  _207
REMARK   69  A    between atoms: _207  and  _208
REMARK   70  A    between atoms: _207  and  _210
REMARK   71  A    between atoms: _210  and  _211
REMARK   72  A    between atoms: _212  and  ZN_432
REMARK   73  A    between atoms: _216  and  _218
REMARK   74  A    between atoms: _218  and  _219
REMARK   75  A    between atoms: _218  and  _221
REMARK   76  A    between atoms: _221  and  _222
REMARK   77  A    between atoms: _225  and  _227
REMARK   78  A    between atoms: _227  and  _228
REMARK   79  A    between atoms: _227  and  _230
REMARK   80  A    between atoms: _233  and  _235
REMARK   81  A    between atoms: _235  and  _236
REMARK   82  A    between atoms: _235  and  _238
REMARK   83  A    between atoms: _238  and  _239
REMARK   84  A    between atoms: _244  and  _246
REMARK   85  A    between atoms: _246  and  _247
REMARK   86  A    between atoms: _246  and  _249
REMARK   87  A    between atoms: _249  and  _250
REMARK   88  A    between atoms: _256  and  _258
REMARK   89  A    between atoms: _258  and  _259
REMARK   90  A    between atoms: _258  and  _261
REMARK   91  A    between atoms: _264  and  _266
REMARK   92  A    between atoms: _266  and  _267
REMARK   93  A    between atoms: _266  and  _269
REMARK   94  A    between atoms: _269  and  _270
REMARK   95  A    between atoms: _273  and  _275
REMARK   96  A    between atoms: _275  and  _276
REMARK   97  A    between atoms: _279  and  _281
REMARK   98  A    between atoms: _281  and  _282
REMARK   99  A    between atoms: _281  and  _284
REMARK  100  A    between atoms: _287  and  _289
REMARK  101  A    between atoms: _289  and  _290
REMARK  102  A    between atoms: _289  and  _292
REMARK  103  A    between atoms: _292  and  _293
REMARK  104  A    between atoms: _296  and  _298
REMARK  105  A    between atoms: _298  and  _299
REMARK  106  A    between atoms: _301  and  _303
REMARK  107  A    between atoms: _303  and  _304
REMARK  108  A    between atoms: _306  and  _308
REMARK  109  A    between atoms: _308  and  _309
REMARK  110  A    between atoms: _308  and  _311
REMARK  111  A    between atoms: _311  and  _312
REMARK  112  A    between atoms: _314  and  _316
REMARK  113  A    between atoms: _316  and  _317
REMARK  114  A    between atoms: _316  and  _319
REMARK  115  A    between atoms: _319  and  _320
REMARK  116  A    between atoms: _323  and  _325
REMARK  117  A    between atoms: _325  and  _326
REMARK  118  A    between atoms: _325  and  _328
REMARK  119  A    between atoms: _328  and  _329
REMARK  120  A    between atoms: _332  and  _334
REMARK  121  A    between atoms: _334  and  _335
REMARK  122  A    between atoms: _334  and  _337
REMARK  123  A    between atoms: _337  and  _338
REMARK  124  A    between atoms: _342  and  _343
REMARK  125  A    between atoms: _349  and  _350
REMARK  126  A    between atoms: _355  and  _357
REMARK  127  A    between atoms: _357  and  _358
REMARK  128  A    between atoms: _357  and  _360
REMARK  129  A    between atoms: _360  and  _361
REMARK  130  A    between atoms: _364  and  _366
REMARK  131  A    between atoms: _366  and  _367
REMARK  132  A    between atoms: _366  and  _369
REMARK  133  A    between atoms: _369  and  _370
REMARK  134  A    between atoms: _373  and  _375
REMARK  135  A    between atoms: _375  and  _376
REMARK  136  A    between atoms: _375  and  _378
REMARK  137  A    between atoms: _380  and  _382
REMARK  138  A    between atoms: _382  and  _383
REMARK  139  A    between atoms: _382  and  _385
REMARK  140  A    between atoms: _388  and  _390
REMARK  141  A    between atoms: _390  and  _391
REMARK  142  A    between atoms: _390  and  _393
REMARK  143  A    between atoms: _393  and  _394
REMARK  144  A    between atoms: _404  and  _406
REMARK  145  A    between atoms: _406  and  _407
REMARK  146  A    between atoms: _406  and  _409
REMARK  147  A    between atoms: _409  and  _410
REMARK  148  A    between atoms: _415  and  _417
REMARK  149  A    between atoms: _417  and  _418
REMARK  150  A    between atoms: _417  and  _420
REMARK  151  A    between atoms: _420  and  _421
REMARK  152  A    between atoms: _421  and  _422
REMARK  153  A    between atoms: _422  and  _423
REMARK                            x       y       z     vdW  Elec       q    Type
REMARK                         _______ _______ _______ _____ _____    ______ ____
ROOT
ATOM      1  C   UNK A   4      10.819  -1.517  10.329  0.00  0.00    +0.000 C 
ATOM      2  C   UNK A   4      10.717  -2.785  11.174  0.00  0.00    +0.000 C 
ATOM      3  O   UNK A   4      10.104  -2.771  12.241  0.00  0.00    +0.000 OA
ATOM      4  N   VAL A   5      11.377  -3.832  10.708  0.00  0.00    +0.000 N 
ATOM      5  CA  VAL A   5      11.444  -5.100  11.408  0.00  0.00    +0.000 C 
ATOM      6  C   VAL A   5      12.871  -5.523  11.576  0.00  0.00    +0.000 C 
ATOM      7  N   UNK A   6      13.022  -6.451  12.546  0.00  0.00    +0.000 N 
ATOM      8  H   UNK A   6      12.234  -6.615  13.205  0.00  0.00    +0.000 HD
ATOM      9  C   UNK A   6      14.237  -7.230  12.709  0.00  0.00    +0.000 C 
ATOM     10  C   UNK A   6      14.945  -6.972  14.079  0.00  0.00    +0.000 C 
ATOM     11  C   UNK A   6      15.193  -5.539  14.335  0.00  0.00    +0.000 A 
ATOM     12  C   UNK A   6      14.401  -4.528  14.796  0.00  0.00    +0.000 A 
ATOM     13  N   UNK A   6      15.135  -3.331  14.793  0.00  0.00    +0.000 N 
ATOM     14 ZN   UNK A   6      14.341  -1.574  15.372  0.00  0.00    +0.000 Zn
ATOM     15  N   UNK A   4      13.653  -0.795  13.677  0.00  0.00    +0.000 N 
ATOM     16  C   UNK A   4      13.146   0.438  13.474  0.00  0.00    +0.000 A 
ATOM     17  N   UNK A   4      12.624   0.508  12.224  0.00  0.00    +0.000 NA
ATOM     18  C   UNK A   4      12.815  -0.702  11.609  0.00  0.00    +0.000 A 
ATOM     19  C   UNK A   4      13.419  -1.501  12.496  0.00  0.00    +0.000 A 
ATOM     20  C   UNK A   6      16.354  -3.618  14.387  0.00  0.00    +0.000 A 
ATOM     21  N   UNK A   6      16.405  -4.955  14.063  0.00  0.00    +0.000 NA
ATOM     22  O   VAL A   5      13.772  -5.086  10.889  0.00  0.00    +0.000 OA
ATOM     23  H   VAL A   5      11.871  -3.742   9.797  0.00  0.00    +0.000 HD
ATOM     24  C   UNK A   4      12.261  -0.994  10.230  0.00  0.00    +0.000 C 
ENDROOT
BRANCH  14  25
ATOM     25  N   UNK A   6      12.879  -2.226  16.635  0.00  0.00    +0.000 N 
ATOM     26  C   UNK A   6      13.165  -3.135  17.529  0.00  0.00    +0.000 A 
ATOM     27  N   UNK A   6      12.060  -3.555  18.167  0.00  0.00    +0.000 NA
ATOM     28  C   UNK A   6      10.994  -2.889  17.564  0.00  0.00    +0.000 A 
ATOM     29  C   UNK A   6      11.538  -2.027  16.650  0.00  0.00    +0.000 A 
BRANCH  29  30
ATOM     30  C   UNK A   6      10.846  -1.074  15.733  0.00  0.00    +0.000 C 
BRANCH  30  31
ATOM     31  C   UNK A   6       9.337  -1.384  15.612  0.00  0.00    +0.000 C 
BRANCH  31  32
ATOM     32  C   UNK A   6       8.626  -0.232  14.919  0.00  0.00    +0.000 C 
ATOM     33  N   UNK A   4       7.643   0.351  15.574  0.00  0.00    +0.000 N 
ATOM     34  H   UNK A   4       7.323  -0.086  16.462  0.00  0.00    +0.000 HD
ATOM     35  O   UNK A   6       9.031   0.108  13.787  0.00  0.00    +0.000 OA
BRANCH  33  36
ATOM     36  C   UNK A   4       6.977   1.568  15.134  0.00  0.00    +0.000 C 
BRANCH  36  37
ATOM     37  C   UNK A   4       7.587   2.716  15.912  0.00  0.00    +0.000 C 
ATOM     38  O   UNK A   4       7.482   2.791  17.139  0.00  0.00    +0.000 OA
ATOM     39  N   VAL A   5       8.354   3.537  15.193  0.00  0.00    +0.000 N 
ATOM     40  H   VAL A   5       8.352   3.449  14.157  0.00  0.00    +0.000 HD
BRANCH  39  41
ATOM     41  CA  VAL A   5       9.216   4.580  15.829  0.00  0.00    +0.000 C 
BRANCH  41  42
ATOM     42  C   VAL A   5       8.525   5.944  15.842  0.00  0.00    +0.000 C 
ATOM     43  N   UNK A   6       8.470   6.568  16.997  0.00  0.00    +0.000 N 
ATOM     44  H   UNK A   6       8.917   6.139  17.833  0.00  0.00    +0.000 HD
ATOM     45  O   VAL A   5       8.073   6.378  14.751  0.00  0.00    +0.000 OA
BRANCH  43  46
ATOM     46  C   UNK A   6       7.796   7.845  17.124  0.00  0.00    +0.000 C 
BRANCH  46  47
ATOM     47  C   UNK A   6       8.678   8.808  17.857  0.00  0.00    +0.000 C 
ATOM     48  O   UNK A   6       9.399   8.433  18.822  0.00  0.00    +0.000 OA
ENDBRANCH  46  47
BRANCH  46  49
ATOM     49  C   UNK A   6       6.487   7.666  17.976  0.00  0.00    +0.000 C 
BRANCH  49  50
ATOM     50  C   UNK A   6       5.599   6.532  17.534  0.00  0.00    +0.000 A 
ATOM     51  N   UNK A   6       5.871   5.215  17.833  0.00  0.00    +0.000 NA
ATOM     52  C   UNK A   6       4.848   4.442  17.373  0.00  0.00    +0.000 A 
ATOM     53  N   UNK A   6       3.949   5.226  16.787  0.00  0.00    +0.000 NA
ATOM     54  C   UNK A   6       4.349   6.527  16.915  0.00  0.00    +0.000 A 
ENDBRANCH  49  50
ENDBRANCH  46  49
ENDBRANCH  43  46
ENDBRANCH  41  42
BRANCH  41  55
ATOM     55  CB  VAL A   5      10.509   4.656  14.978  0.00  0.00    +0.000 C 
ATOM     56  CG2 VAL A   5      11.512   5.691  15.613  0.00  0.00    +0.000 C 
ATOM     57  CG1 VAL A   5      11.231   3.281  14.853  0.00  0.00    +0.000 C 
ENDBRANCH  41  55
ENDBRANCH  39  41
ENDBRANCH  36  37
BRANCH  36  58
ATOM     58  C   UNK A   4       5.481   1.490  15.274  0.00  0.00    +0.000 C 
BRANCH  58  59
ATOM     59  C   UNK A   4       4.801   0.393  14.421  0.00  0.00    +0.000 C 
ATOM     60  C   UNK A   4       4.012  -0.525  15.329  0.00  0.00    +0.000 C 
ATOM     61  C   UNK A   4       3.953   1.021  13.336  0.00  0.00    +0.000 C 
ENDBRANCH  58  59
ENDBRANCH  36  58
ENDBRANCH  33  36
ENDBRANCH  31  32
BRANCH  31  62
ATOM     62  N   UNK A   6       9.130  -2.617  14.874  0.00  0.00    +0.000 N 
ATOM     63  C   LEU A   2       8.501  -3.677  15.379  0.00  0.00    +0.000 C 
ATOM     64  O   LEU A   2       8.045  -3.752  16.562  0.00  0.00    +0.000 OA
ATOM     65  H   UNK A   6       9.492  -2.676  13.901  0.00  0.00    +0.000 HD
BRANCH  63  66
ATOM     66  CA  LEU A   2       8.251  -4.810  14.386  0.00  0.00    +0.000 C 
BRANCH  66  67
ATOM     67  N   LEU A   2       8.607  -6.090  15.078  0.00  0.00    +0.000 N 
ATOM     68  H   LEU A   2       7.882  -6.546  15.668  0.00  0.00    +0.000 HD
ATOM     69  C   GLU A   1       9.793  -6.674  14.981  0.00  0.00    +0.000 C 
ATOM     70  O   GLU A   1      10.746  -6.251  14.296  0.00  0.00    +0.000 OA
BRANCH  69  71
ATOM     71  CA  GLU A   1       9.975  -7.923  15.836  0.00  0.00    +0.000 C 
BRANCH  71  72
ATOM     72  N   GLU A   1      10.544  -8.981  14.986  0.00  0.00    +0.000 NA
ATOM     73  H   GLU A   1      11.238  -8.727  14.255  0.00  0.00    +0.000 HD
ENDBRANCH  71  72
BRANCH  71  74
ATOM     74  CB  GLU A   1      10.933  -7.649  17.024  0.00  0.00    +0.000 C 
BRANCH  74  75
ATOM     75  CG  GLU A   1      10.434  -6.656  18.038  0.00  0.00    +0.000 C 
BRANCH  75  76
ATOM     76  CD  GLU A   1      11.304  -6.616  19.258  0.00  0.00    +0.000 C 
ATOM     77  OE2 GLU A   1      11.357  -5.499  19.895  0.00  0.00    +0.000 OA
ATOM     78  OE1 GLU A   1      12.000  -7.599  19.590  0.00  0.00    +0.000 OA
ENDBRANCH  75  76
ENDBRANCH  74  75
ENDBRANCH  71  74
ENDBRANCH  69  71
ENDBRANCH  66  67
BRANCH  66  79
ATOM     79  CB  LEU A   2       6.766  -4.952  14.069  0.00  0.00    +0.000 C 
BRANCH  79  80
ATOM     80  CG  LEU A   2       6.025  -3.667  13.658  0.00  0.00    +0.000 C 
ATOM     81  CD2 LEU A   2       4.546  -4.026  13.388  0.00  0.00    +0.000 C 
ATOM     82  CD1 LEU A   2       6.591  -3.000  12.388  0.00  0.00    +0.000 C 
ENDBRANCH  79  80
ENDBRANCH  66  79
ENDBRANCH  63  66
ENDBRANCH  31  62
ENDBRANCH  30  31
ENDBRANCH  29  30
ENDBRANCH  14  25
BRANCH   1  84
ATOM     83  C   UNK A   3       9.391   0.499  10.252  0.00  0.00    +0.000 C 
ATOM     84  N   UNK A   4       9.927  -0.518  10.943  0.00  0.00    +0.000 N 
ATOM     85  H   UNK A   4       9.703  -0.605  11.955  0.00  0.00    +0.000 HD
ATOM     86  O   UNK A   3       9.582   0.685   9.027  0.00  0.00    +0.000 OA
BRANCH  83  87
ATOM     87  C   UNK A   3       8.437   1.350  11.026  0.00  0.00    +0.000 C 
BRANCH  87  90
ATOM     88  C   LEU A   2       8.537   3.776  11.102  0.00  0.00    +0.000 C 
ATOM     89  O   LEU A   2       8.565   3.816  12.345  0.00  0.00    +0.000 OA
ATOM     90  N   UNK A   3       8.334   2.674  10.395  0.00  0.00    +0.000 N 
ATOM     91  H   UNK A   3       8.100   2.746   9.384  0.00  0.00    +0.000 HD
BRANCH  88  92
ATOM     92  CA  LEU A   2       8.831   4.997  10.267  0.00  0.00    +0.000 C 
BRANCH  92  94
ATOM     93  C   GLU A   1       8.442   7.421  10.586  0.00  0.00    +0.000 C 
ATOM     94  N   LEU A   2       8.575   6.186  11.153  0.00  0.00    +0.000 N 
ATOM     95  H   LEU A   2       8.500   6.069  12.184  0.00  0.00    +0.000 HD
ATOM     96  O   GLU A   1       8.489   7.591   9.369  0.00  0.00    +0.000 OA
BRANCH  93  97
ATOM     97  CA  GLU A   1       8.193   8.575  11.569  0.00  0.00    +0.000 C 
BRANCH  97  98
ATOM     98  CB  GLU A   1       9.546   9.170  12.117  0.00  0.00    +0.000 C 
ATOM     99  CG2 GLU A   1      10.175   8.340  13.185  0.00  0.00    +0.000 C 
BRANCH  98 100
ATOM    100  CG1 GLU A   1      10.526   9.411  10.931  0.00  0.00    +0.000 C 
ATOM    101  CD1 GLU A   1      11.800  10.230  11.338  0.00  0.00    +0.000 C 
ENDBRANCH  98 100
ENDBRANCH  97  98
BRANCH  97 102
ATOM    102  N   GLU A   1       7.246   8.260  12.644  0.00  0.00    +0.000 NA
ATOM    103  H   GLU A   1       7.606   7.686  13.433  0.00  0.00    +0.000 HD
ENDBRANCH  97 102
ENDBRANCH  93  97
ENDBRANCH  92  94
BRANCH  92 104
ATOM    104  CB  LEU A   2      10.295   4.991   9.750  0.00  0.00    +0.000 C 
BRANCH 104 105
ATOM    105  CG  LEU A   2      11.375   5.205  10.859  0.00  0.00    +0.000 C 
BRANCH 105 106
ATOM    106  CD  LEU A   2      12.108   3.914  11.217  0.00  0.00    +0.000 C 
ATOM    107  NE2 LEU A   2      13.339   4.067  11.666  0.00  0.00    +0.000 N 
ATOM    108 HE21 LEU A   2      13.888   3.238  11.971  0.00  0.00    +0.000 HD
ATOM    109 HE22 LEU A   2      13.760   5.017  11.715  0.00  0.00    +0.000 HD
ATOM    110  OE1 LEU A   2      11.558   2.808  11.137  0.00  0.00    +0.000 OA
ENDBRANCH 105 106
ENDBRANCH 104 105
ENDBRANCH  92 104
ENDBRANCH  88  92
ENDBRANCH  87  90
BRANCH  87 111
ATOM    111  C   UNK A   3       7.082   0.685  11.270  0.00  0.00    +0.000 C 
BRANCH 111 112
ATOM    112  C   UNK A   3       6.373   0.165  10.024  0.00  0.00    +0.000 A 
ATOM    113  C   UNK A   3       5.222   0.849   9.588  0.00  0.00    +0.000 A 
ATOM    114  C   UNK A   3       4.482   0.379   8.471  0.00  0.00    +0.000 A 
ATOM    115  C   UNK A   3       4.876  -0.775   7.832  0.00  0.00    +0.000 A 
ATOM    116  C   UNK A   3       6.037  -1.440   8.242  0.00  0.00    +0.000 A 
ATOM    117  C   UNK A   3       6.765  -1.007   9.356  0.00  0.00    +0.000 A 
ENDBRANCH 111 112
ENDBRANCH  87 111
ENDBRANCH  83  87
ENDBRANCH   1  84
BRANCH   9 118
ATOM    118  C   UNK A   6      13.828  -8.699  12.663  0.00  0.00    +0.000 C 
ATOM    119  O   UNK A   6      12.742  -9.050  13.155  0.00  0.00    +0.000 OA
ENDBRANCH   9 118
BRANCH   5 120
ATOM    120  CB  VAL A   5      10.734  -6.213  10.577  0.00  0.00    +0.000 C 
BRANCH 120 121
ATOM    121  CG  VAL A   5       9.269  -5.949  10.281  0.00  0.00    +0.000 A 
ATOM    122  CD2 VAL A   5       8.244  -6.537  10.937  0.00  0.00    +0.000 A 
ATOM    123  CE2 VAL A   5       6.914  -6.351  10.577  0.00  0.00    +0.000 A 
ATOM    124  CZ  VAL A   5       6.583  -5.496   9.542  0.00  0.00    +0.000 A 
ATOM    125  CE1 VAL A   5       7.569  -4.897   8.860  0.00  0.00    +0.000 A 
ATOM    126  CD1 VAL A   5       8.931  -5.124   9.200  0.00  0.00    +0.000 A 
ENDBRANCH 120 121
ENDBRANCH   5 120
TORSDOF 42
REMARK  Name = ../refined-set-2016/3s71/3s71_pocket.pdb
REMARK  153 active torsions:
REMARK  status: ('A' for Active; 'I' for Inactive)
REMARK    1  A    between atoms: _1  and  _5
REMARK    2  A    between atoms: _5  and  _6
REMARK    3  A    between atoms: _5  and  _8
REMARK    4  A    between atoms: _8  and  _9
REMARK    5  A    between atoms: _14  and  _16
REMARK    6  A    between atoms: _16  and  _17
REMARK    7  A    between atoms: _16  and  _19
REMARK    8  A    between atoms: _19  and  _20
REMARK    9  A    between atoms: _30  and  _32
REMARK   10  A    between atoms: _32  and  _33
REMARK   11  A    between atoms: _32  and  _35
REMARK   12  A    between atoms: _35  and  _36
REMARK   13  A    between atoms: _41  and  _42
REMARK   14  A    between atoms: _44  and  _46
REMARK   15  A    between atoms: _46  and  _47
REMARK   16  A    between atoms: _46  and  _49
REMARK   17  A    between atoms: _49  and  _50
REMARK   18  A    between atoms: _53  and  _54
REMARK   19  A    between atoms: _59  and  _61
REMARK   20  A    between atoms: _61  and  _62
REMARK   21  A    between atoms: _61  and  _64
REMARK   22  A    between atoms: _64  and  _65
REMARK   23  A    between atoms: _70  and  _72
REMARK   24  A    between atoms: _72  and  _73
REMARK   25  A    between atoms: _72  and  _75
REMARK   26  A    between atoms: _75  and  _76
REMARK   27  A    between atoms: _81  and  _83
REMARK   28  A    between atoms: _83  and  _84
REMARK   29  A    between atoms: _87  and  _89
REMARK   30  A    between atoms: _89  and  _90
REMARK   31  A    between atoms: _89  and  _92
REMARK   32  A    between atoms: _92  and  _93
REMARK   33  A    between atoms: _98  and  _100
REMARK   34  A    between atoms: _100  and  _101
REMARK   35  A    between atoms: _100  and  _103
REMARK   36  A    between atoms: _103  and  _104
REMARK   37  A    between atoms: _107  and  _109
REMARK   38  A    between atoms: _109  and  _110
REMARK   39  A    between atoms: _109  and  _112
REMARK   40  A    between atoms: _112  and  _113
REMARK   41  A    between atoms: _113  and  _114
REMARK   42  A    between atoms: _119  and  _121
REMARK   43  A    between atoms: _121  and  _122
REMARK   44  A    between atoms: _121  and  _124
REMARK   45  A    between atoms: _124  and  _125
REMARK   46  A    between atoms: _131  and  _133
REMARK   47  A    between atoms: _144  and  _147
REMARK   48  A    between atoms: _147  and  _148
REMARK   49  A    between atoms: _156  and  _157
REMARK   50  A    between atoms: _165  and  _167
REMARK   51  A    between atoms: _167  and  _168
REMARK   52  A    between atoms: _167  and  _170
REMARK   53  A    between atoms: _170  and  _171
REMARK   54  A    between atoms: _171  and  _172
REMARK   55  A    between atoms: _175  and  _177
REMARK   56  A    between atoms: _177  and  _178
REMARK   57  A    between atoms: _177  and  _180
REMARK   58  A    between atoms: _180  and  _181
REMARK   59  A    between atoms: _186  and  _188
REMARK   60  A    between atoms: _188  and  _189
REMARK   61  A    between atoms: _188  and  _191
REMARK   62  A    between atoms: _191  and  _192
REMARK   63  A    between atoms: _192  and  _193
REMARK   64  A    between atoms: _196  and  _198
REMARK   65  A    between atoms: _198  and  _199
REMARK   66  A    between atoms: _198  and  _201
REMARK   67  A    between atoms: _201  and  _202
REMARK   68  A    between atoms: _205  and  _207
REMARK   69  A    between atoms: _207  and  _208
REMARK   70  A    between atoms: _207  and  _210
REMARK   71  A    between atoms: _210  and  _211
REMARK   72  A    between atoms: _212  and  ZN_432
REMARK   73  A    between atoms: _216  and  _218
REMARK   74  A    between atoms: _218  and  _219
REMARK   75  A    between atoms: _218  and  _221
REMARK   76  A    between atoms: _221  and  _222
REMARK   77  A    between atoms: _225  and  _227
REMARK   78  A    between atoms: _227  and  _228
REMARK   79  A    between atoms: _227  and  _230
REMARK   80  A    between atoms: _233  and  _235
REMARK   81  A    between atoms: _235  and  _236
REMARK   82  A    between atoms: _235  and  _238
REMARK   83  A    between atoms: _238  and  _239
REMARK   84  A    between atoms: _244  and  _246
REMARK   85  A    between atoms: _246  and  _247
REMARK   86  A    between atoms: _246  and  _249
REMARK   87  A    between atoms: _249  and  _250
REMARK   88  A    between atoms: _256  and  _258
REMARK   89  A    between atoms: _258  and  _259
REMARK   90  A    between atoms: _258  and  _261
REMARK   91  A    between atoms: _264  and  _266
REMARK   92  A    between atoms: _266  and  _267
REMARK   93  A    between atoms: _266  and  _269
REMARK   94  A    between atoms: _269  and  _270
REMARK   95  A    between atoms: _273  and  _275
REMARK   96  A    between atoms: _275  and  _276
REMARK   97  A    between atoms: _279  and  _281
REMARK   98  A    between atoms: _281  and  _282
REMARK   99  A    between atoms: _281  and  _284
REMARK  100  A    between atoms: _287  and  _289
REMARK  101  A    between atoms: _289  and  _290
REMARK  102  A    between atoms: _289  and  _292
REMARK  103  A    between atoms: _292  and  _293
REMARK  104  A    between atoms: _296  and  _298
REMARK  105  A    between atoms: _298  and  _299
REMARK  106  A    between atoms: _301  and  _303
REMARK  107  A    between atoms: _303  and  _304
REMARK  108  A    between atoms: _306  and  _308
REMARK  109  A    between atoms: _308  and  _309
REMARK  110  A    between atoms: _308  and  _311
REMARK  111  A    between atoms: _311  and  _312
REMARK  112  A    between atoms: _314  and  _316
REMARK  113  A    between atoms: _316  and  _317
REMARK  114  A    between atoms: _316  and  _319
REMARK  115  A    between atoms: _319  and  _320
REMARK  116  A    between atoms: _323  and  _325
REMARK  117  A    between atoms: _325  and  _326
REMARK  118  A    between atoms: _325  and  _328
REMARK  119  A    between atoms: _328  and  _329
REMARK  120  A    between atoms: _332  and  _334
REMARK  121  A    between atoms: _334  and  _335
REMARK  122  A    between atoms: _334  and  _337
REMARK  123  A    between atoms: _337  and  _338
REMARK  124  A    between atoms: _342  and  _343
REMARK  125  A    between atoms: _349  and  _350
REMARK  126  A    between atoms: _355  and  _357
REMARK  127  A    between atoms: _357  and  _358
REMARK  128  A    between atoms: _357  and  _360
REMARK  129  A    between atoms: _360  and  _361
REMARK  130  A    between atoms: _364  and  _366
REMARK  131  A    between atoms: _366  and  _367
REMARK  132  A    between atoms: _366  and  _369
REMARK  133  A    between atoms: _369  and  _370
REMARK  134  A    between atoms: _373  and  _375
REMARK  135  A    between atoms: _375  and  _376
REMARK  136  A    between atoms: _375  and  _378
REMARK  137  A    between atoms: _380  and  _382
REMARK  138  A    between atoms: _382  and  _383
REMARK  139  A    between atoms: _382  and  _385
REMARK  140  A    between atoms: _388  and  _390
REMARK  141  A    between atoms: _390  and  _391
REMARK  142  A    between atoms: _390  and  _393
REMARK  143  A    between atoms: _393  and  _394
REMARK  144  A    between atoms: _404  and  _406
REMARK  145  A    between atoms: _406  and  _407
REMARK  146  A    between atoms: _406  and  _409
REMARK  147  A    between atoms: _409  and  _410
REMARK  148  A    between atoms: _415  and  _417
REMARK  149  A    between atoms: _417  and  _418
REMARK  150  A    between atoms: _417  and  _420
REMARK  151  A    between atoms: _420  and  _421
REMARK  152  A    between atoms: _421  and  _422
REMARK  153  A    between atoms: _422  and  _423
REMARK                            x       y       z     vdW  Elec       q    Type
REMARK                         _______ _______ _______ _____ _____    ______ ____
ROOT
ATOM      1  C   GLU A   1      15.106  -8.298  21.204  0.00  0.00    +0.238 C 
ATOM      2  O   GLU A   1      15.904  -8.880  21.952  0.00  0.00    -0.274 OA
ATOM      3  N   HIS A   2      13.930  -7.875  21.604  0.00  0.00    -0.298 N 
ATOM      4  H   HIS A   2      13.331  -7.289  20.988  0.00  0.00    +0.150 HD
ENDROOT
BRANCH   1   5
ATOM      5  CA  GLU A   1      15.419  -8.170  19.713  0.00  0.00    +0.145 C 
BRANCH   5   6
ATOM      6  N   GLU A   1      14.430  -8.886  18.920  0.00  0.00    -0.238 NA
ATOM      7  H   GLU A   1      13.558  -8.385  18.654  0.00  0.00    +0.142 HD
ENDBRANCH   5   6
BRANCH   5   8
ATOM      8  CB  GLU A   1      15.472  -6.678  19.279  0.00  0.00    +0.038 C 
BRANCH   8   9
ATOM      9  CG  GLU A   1      15.959  -6.577  17.812  0.00  0.00    +0.116 C 
BRANCH   9  10
ATOM     10  CD  GLU A   1      16.633  -5.306  17.541  0.00  0.00    +0.365 C 
ATOM     11  OE2 GLU A   1      16.078  -4.228  17.841  0.00  0.00    -0.246 OA
ATOM     12  OE1 GLU A   1      17.763  -5.355  17.010  0.00  0.00    -0.246 OA
ENDBRANCH   9  10
ENDBRANCH   8   9
ENDBRANCH   5   8
ENDBRANCH   1   5
BRANCH   3  13
ATOM     13  CA  HIS A   2      13.492  -8.256  22.943  0.00  0.00    +0.143 C 
BRANCH  13  14
ATOM     14  C   HIS A   2      13.205  -9.741  22.958  0.00  0.00    +0.227 C 
ATOM     15  O   HIS A   2      12.851 -10.336  21.939  0.00  0.00    -0.286 OA
ENDBRANCH  13  14
BRANCH  13  16
ATOM     16  CB  HIS A   2      12.241  -7.460  23.317  0.00  0.00    +0.075 C 
BRANCH  16  17
ATOM     17  CG  HIS A   2      12.523  -6.001  23.454  0.00  0.00    +0.082 A 
ATOM     18  CD2 HIS A   2      13.009  -5.291  24.487  0.00  0.00    +0.115 A 
ATOM     19  NE2 HIS A   2      13.221  -3.993  24.086  0.00  0.00    -0.221 NA
ATOM     20  CE1 HIS A   2      12.869  -3.906  22.798  0.00  0.00    +0.199 A 
ATOM     21  ND1 HIS A   2      12.464  -5.119  22.382  0.00  0.00    -0.227 NA
ENDBRANCH  16  17
ENDBRANCH  13  16
ENDBRANCH   3  13
TORSDOF 9
REMARK  Name = ../refined-set-2016/3s71/3s71_pocket.pdb
REMARK  153 active torsions:
REMARK  status: ('A' for Active; 'I' for Inactive)
REMARK    1  A    between atoms: _1  and  _5
REMARK    2  A    between atoms: _5  and  _6
REMARK    3  A    between atoms: _5  and  _8
REMARK    4  A    between atoms: _8  and  _9
REMARK    5  A    between atoms: _14  and  _16
REMARK    6  A    between atoms: _16  and  _17
REMARK    7  A    between atoms: _16  and  _19
REMARK    8  A    between atoms: _19  and  _20
REMARK    9  A    between atoms: _30  and  _32
REMARK   10  A    between atoms: _32  and  _33
REMARK   11  A    between atoms: _32  and  _35
REMARK   12  A    between atoms: _35  and  _36
REMARK   13  A    between atoms: _41  and  _42
REMARK   14  A    between atoms: _44  and  _46
REMARK   15  A    between atoms: _46  and  _47
REMARK   16  A    between atoms: _46  and  _49
REMARK   17  A    between atoms: _49  and  _50
REMARK   18  A    between atoms: _53  and  _54
REMARK   19  A    between atoms: _59  and  _61
REMARK   20  A    between atoms: _61  and  _62
REMARK   21  A    between atoms: _61  and  _64
REMARK   22  A    between atoms: _64  and  _65
REMARK   23  A    between atoms: _70  and  _72
REMARK   24  A    between atoms: _72  and  _73
REMARK   25  A    between atoms: _72  and  _75
REMARK   26  A    between atoms: _75  and  _76
REMARK   27  A    between atoms: _81  and  _83
REMARK   28  A    between atoms: _83  and  _84
REMARK   29  A    between atoms: _87  and  _89
REMARK   30  A    between atoms: _89  and  _90
REMARK   31  A    between atoms: _89  and  _92
REMARK   32  A    between atoms: _92  and  _93
REMARK   33  A    between atoms: _98  and  _100
REMARK   34  A    between atoms: _100  and  _101
REMARK   35  A    between atoms: _100  and  _103
REMARK   36  A    between atoms: _103  and  _104
REMARK   37  A    between atoms: _107  and  _109
REMARK   38  A    between atoms: _109  and  _110
REMARK   39  A    between atoms: _109  and  _112
REMARK   40  A    between atoms: _112  and  _113
REMARK   41  A    between atoms: _113  and  _114
REMARK   42  A    between atoms: _119  and  _121
REMARK   43  A    between atoms: _121  and  _122
REMARK   44  A    between atoms: _121  and  _124
REMARK   45  A    between atoms: _124  and  _125
REMARK   46  A    between atoms: _131  and  _133
REMARK   47  A    between atoms: _144  and  _147
REMARK   48  A    between atoms: _147  and  _148
REMARK   49  A    between atoms: _156  and  _157
REMARK   50  A    between atoms: _165  and  _167
REMARK   51  A    between atoms: _167  and  _168
REMARK   52  A    between atoms: _167  and  _170
REMARK   53  A    between atoms: _170  and  _171
REMARK   54  A    between atoms: _171  and  _172
REMARK   55  A    between atoms: _175  and  _177
REMARK   56  A    between atoms: _177  and  _178
REMARK   57  A    between atoms: _177  and  _180
REMARK   58  A    between atoms: _180  and  _181
REMARK   59  A    between atoms: _186  and  _188
REMARK   60  A    between atoms: _188  and  _189
REMARK   61  A    between atoms: _188  and  _191
REMARK   62  A    between atoms: _191  and  _192
REMARK   63  A    between atoms: _192  and  _193
REMARK   64  A    between atoms: _196  and  _198
REMARK   65  A    between atoms: _198  and  _199
REMARK   66  A    between atoms: _198  and  _201
REMARK   67  A    between atoms: _201  and  _202
REMARK   68  A    between atoms: _205  and  _207
REMARK   69  A    between atoms: _207  and  _208
REMARK   70  A    between atoms: _207  and  _210
REMARK   71  A    between atoms: _210  and  _211
REMARK   72  A    between atoms: _212  and  ZN_432
REMARK   73  A    between atoms: _216  and  _218
REMARK   74  A    between atoms: _218  and  _219
REMARK   75  A    between atoms: _218  and  _221
REMARK   76  A    between atoms: _221  and  _222
REMARK   77  A    between atoms: _225  and  _227
REMARK   78  A    between atoms: _227  and  _228
REMARK   79  A    between atoms: _227  and  _230
REMARK   80  A    between atoms: _233  and  _235
REMARK   81  A    between atoms: _235  and  _236
REMARK   82  A    between atoms: _235  and  _238
REMARK   83  A    between atoms: _238  and  _239
REMARK   84  A    between atoms: _244  and  _246
REMARK   85  A    between atoms: _246  and  _247
REMARK   86  A    between atoms: _246  and  _249
REMARK   87  A    between atoms: _249  and  _250
REMARK   88  A    between atoms: _256  and  _258
REMARK   89  A    between atoms: _258  and  _259
REMARK   90  A    between atoms: _258  and  _261
REMARK   91  A    between atoms: _264  and  _266
REMARK   92  A    between atoms: _266  and  _267
REMARK   93  A    between atoms: _266  and  _269
REMARK   94  A    between atoms: _269  and  _270
REMARK   95  A    between atoms: _273  and  _275
REMARK   96  A    between atoms: _275  and  _276
REMARK   97  A    between atoms: _279  and  _281
REMARK   98  A    between atoms: _281  and  _282
REMARK   99  A    between atoms: _281  and  _284
REMARK  100  A    between atoms: _287  and  _289
REMARK  101  A    between atoms: _289  and  _290
REMARK  102  A    between atoms: _289  and  _292
REMARK  103  A    between atoms: _292  and  _293
REMARK  104  A    between atoms: _296  and  _298
REMARK  105  A    between atoms: _298  and  _299
REMARK  106  A    between atoms: _301  and  _303
REMARK  107  A    between atoms: _303  and  _304
REMARK  108  A    between atoms: _306  and  _308
REMARK  109  A    between atoms: _308  and  _309
REMARK  110  A    between atoms: _308  and  _311
REMARK  111  A    between atoms: _311  and  _312
REMARK  112  A    between atoms: _314  and  _316
REMARK  113  A    between atoms: _316  and  _317
REMARK  114  A    between atoms: _316  and  _319
REMARK  115  A    between atoms: _319  and  _320
REMARK  116  A    between atoms: _323  and  _325
REMARK  117  A    between atoms: _325  and  _326
REMARK  118  A    between atoms: _325  and  _328
REMARK  119  A    between atoms: _328  and  _329
REMARK  120  A    between atoms: _332  and  _334
REMARK  121  A    between atoms: _334  and  _335
REMARK  122  A    between atoms: _334  and  _337
REMARK  123  A    between atoms: _337  and  _338
REMARK  124  A    between atoms: _342  and  _343
REMARK  125  A    between atoms: _349  and  _350
REMARK  126  A    between atoms: _355  and  _357
REMARK  127  A    between atoms: _357  and  _358
REMARK  128  A    between atoms: _357  and  _360
REMARK  129  A    between atoms: _360  and  _361
REMARK  130  A    between atoms: _364  and  _366
REMARK  131  A    between atoms: _366  and  _367
REMARK  132  A    between atoms: _366  and  _369
REMARK  133  A    between atoms: _369  and  _370
REMARK  134  A    between atoms: _373  and  _375
REMARK  135  A    between atoms: _375  and  _376
REMARK  136  A    between atoms: _375  and  _378
REMARK  137  A    between atoms: _380  and  _382
REMARK  138  A    between atoms: _382  and  _383
REMARK  139  A    between atoms: _382  and  _385
REMARK  140  A    between atoms: _388  and  _390
REMARK  141  A    between atoms: _390  and  _391
REMARK  142  A    between atoms: _390  and  _393
REMARK  143  A    between atoms: _393  and  _394
REMARK  144  A    between atoms: _404  and  _406
REMARK  145  A    between atoms: _406  and  _407
REMARK  146  A    between atoms: _406  and  _409
REMARK  147  A    between atoms: _409  and  _410
REMARK  148  A    between atoms: _415  and  _417
REMARK  149  A    between atoms: _417  and  _418
REMARK  150  A    between atoms: _417  and  _420
REMARK  151  A    between atoms: _420  and  _421
REMARK  152  A    between atoms: _421  and  _422
REMARK  153  A    between atoms: _422  and  _423
REMARK                            x       y       z     vdW  Elec       q    Type
REMARK                         _______ _______ _______ _____ _____    ______ ____
ROOT
ATOM      1  CB  PHE A   1      13.552  12.762  13.963  0.00  0.00    +0.051 C 
ENDROOT
BRANCH   1   2
ATOM      2  CG  PHE A   1      14.084  11.390  14.296  0.00  0.00    -0.020 A 
ATOM      3  CD2 PHE A   1      13.263  10.449  14.877  0.00  0.00    -0.004 A 
ATOM      4  CE2 PHE A   1      13.704   9.174  15.191  0.00  0.00    -0.000 A 
ATOM      5  CZ  PHE A   1      14.992   8.831  14.946  0.00  0.00    -0.000 A 
ATOM      6  CE1 PHE A   1      15.855   9.737  14.376  0.00  0.00    -0.000 A 
ATOM      7  CD1 PHE A   1      15.401  11.059  14.039  0.00  0.00    -0.004 A 
ENDBRANCH   1   2
BRANCH   1   8
ATOM      8  CA  PHE A   1      13.721  13.736  15.143  0.00  0.00    +0.137 C 
BRANCH   8   9
ATOM      9  N   PHE A   1      13.198  15.030  14.685  0.00  0.00    -0.239 NA
ATOM     10  H   PHE A   1      12.903  15.135  13.693  0.00  0.00    +0.142 HD
ENDBRANCH   8   9
BRANCH   8  11
ATOM     11  C   PHE A   1      15.129  13.839  15.592  0.00  0.00    +0.224 C 
ATOM     12  O   PHE A   1      15.533  13.257  16.608  0.00  0.00    -0.287 OA
ENDBRANCH   8  11
ENDBRANCH   1   8
TORSDOF 4
REMARK  Name = ../refined-set-2016/3s71/3s71_pocket.pdb
REMARK  153 active torsions:
REMARK  status: ('A' for Active; 'I' for Inactive)
REMARK    1  A    between atoms: _1  and  _5
REMARK    2  A    between atoms: _5  and  _6
REMARK    3  A    between atoms: _5  and  _8
REMARK    4  A    between atoms: _8  and  _9
REMARK    5  A    between atoms: _14  and  _16
REMARK    6  A    between atoms: _16  and  _17
REMARK    7  A    between atoms: _16  and  _19
REMARK    8  A    between atoms: _19  and  _20
REMARK    9  A    between atoms: _30  and  _32
REMARK   10  A    between atoms: _32  and  _33
REMARK   11  A    between atoms: _32  and  _35
REMARK   12  A    between atoms: _35  and  _36
REMARK   13  A    between atoms: _41  and  _42
REMARK   14  A    between atoms: _44  and  _46
REMARK   15  A    between atoms: _46  and  _47
REMARK   16  A    between atoms: _46  and  _49
REMARK   17  A    between atoms: _49  and  _50
REMARK   18  A    between atoms: _53  and  _54
REMARK   19  A    between atoms: _59  and  _61
REMARK   20  A    between atoms: _61  and  _62
REMARK   21  A    between atoms: _61  and  _64
REMARK   22  A    between atoms: _64  and  _65
REMARK   23  A    between atoms: _70  and  _72
REMARK   24  A    between atoms: _72  and  _73
REMARK   25  A    between atoms: _72  and  _75
REMARK   26  A    between atoms: _75  and  _76
REMARK   27  A    between atoms: _81  and  _83
REMARK   28  A    between atoms: _83  and  _84
REMARK   29  A    between atoms: _87  and  _89
REMARK   30  A    between atoms: _89  and  _90
REMARK   31  A    between atoms: _89  and  _92
REMARK   32  A    between atoms: _92  and  _93
REMARK   33  A    between atoms: _98  and  _100
REMARK   34  A    between atoms: _100  and  _101
REMARK   35  A    between atoms: _100  and  _103
REMARK   36  A    between atoms: _103  and  _104
REMARK   37  A    between atoms: _107  and  _109
REMARK   38  A    between atoms: _109  and  _110
REMARK   39  A    between atoms: _109  and  _112
REMARK   40  A    between atoms: _112  and  _113
REMARK   41  A    between atoms: _113  and  _114
REMARK   42  A    between atoms: _119  and  _121
REMARK   43  A    between atoms: _121  and  _122
REMARK   44  A    between atoms: _121  and  _124
REMARK   45  A    between atoms: _124  and  _125
REMARK   46  A    between atoms: _131  and  _133
REMARK   47  A    between atoms: _144  and  _147
REMARK   48  A    between atoms: _147  and  _148
REMARK   49  A    between atoms: _156  and  _157
REMARK   50  A    between atoms: _165  and  _167
REMARK   51  A    between atoms: _167  and  _168
REMARK   52  A    between atoms: _167  and  _170
REMARK   53  A    between atoms: _170  and  _171
REMARK   54  A    between atoms: _171  and  _172
REMARK   55  A    between atoms: _175  and  _177
REMARK   56  A    between atoms: _177  and  _178
REMARK   57  A    between atoms: _177  and  _180
REMARK   58  A    between atoms: _180  and  _181
REMARK   59  A    between atoms: _186  and  _188
REMARK   60  A    between atoms: _188  and  _189
REMARK   61  A    between atoms: _188  and  _191
REMARK   62  A    between atoms: _191  and  _192
REMARK   63  A    between atoms: _192  and  _193
REMARK   64  A    between atoms: _196  and  _198
REMARK   65  A    between atoms: _198  and  _199
REMARK   66  A    between atoms: _198  and  _201
REMARK   67  A    between atoms: _201  and  _202
REMARK   68  A    between atoms: _205  and  _207
REMARK   69  A    between atoms: _207  and  _208
REMARK   70  A    between atoms: _207  and  _210
REMARK   71  A    between atoms: _210  and  _211
REMARK   72  A    between atoms: _212  and  ZN_432
REMARK   73  A    between atoms: _216  and  _218
REMARK   74  A    between atoms: _218  and  _219
REMARK   75  A    between atoms: _218  and  _221
REMARK   76  A    between atoms: _221  and  _222
REMARK   77  A    between atoms: _225  and  _227
REMARK   78  A    between atoms: _227  and  _228
REMARK   79  A    between atoms: _227  and  _230
REMARK   80  A    between atoms: _233  and  _235
REMARK   81  A    between atoms: _235  and  _236
REMARK   82  A    between atoms: _235  and  _238
REMARK   83  A    between atoms: _238  and  _239
REMARK   84  A    between atoms: _244  and  _246
REMARK   85  A    between atoms: _246  and  _247
REMARK   86  A    between atoms: _246  and  _249
REMARK   87  A    between atoms: _249  and  _250
REMARK   88  A    between atoms: _256  and  _258
REMARK   89  A    between atoms: _258  and  _259
REMARK   90  A    between atoms: _258  and  _261
REMARK   91  A    between atoms: _264  and  _266
REMARK   92  A    between atoms: _266  and  _267
REMARK   93  A    between atoms: _266  and  _269
REMARK   94  A    between atoms: _269  and  _270
REMARK   95  A    between atoms: _273  and  _275
REMARK   96  A    between atoms: _275  and  _276
REMARK   97  A    between atoms: _279  and  _281
REMARK   98  A    between atoms: _281  and  _282
REMARK   99  A    between atoms: _281  and  _284
REMARK  100  A    between atoms: _287  and  _289
REMARK  101  A    between atoms: _289  and  _290
REMARK  102  A    between atoms: _289  and  _292
REMARK  103  A    between atoms: _292  and  _293
REMARK  104  A    between atoms: _296  and  _298
REMARK  105  A    between atoms: _298  and  _299
REMARK  106  A    between atoms: _301  and  _303
REMARK  107  A    between atoms: _303  and  _304
REMARK  108  A    between atoms: _306  and  _308
REMARK  109  A    between atoms: _308  and  _309
REMARK  110  A    between atoms: _308  and  _311
REMARK  111  A    between atoms: _311  and  _312
REMARK  112  A    between atoms: _314  and  _316
REMARK  113  A    between atoms: _316  and  _317
REMARK  114  A    between atoms: _316  and  _319
REMARK  115  A    between atoms: _319  and  _320
REMARK  116  A    between atoms: _323  and  _325
REMARK  117  A    between atoms: _325  and  _326
REMARK  118  A    between atoms: _325  and  _328
REMARK  119  A    between atoms: _328  and  _329
REMARK  120  A    between atoms: _332  and  _334
REMARK  121  A    between atoms: _334  and  _335
REMARK  122  A    between atoms: _334  and  _337
REMARK  123  A    between atoms: _337  and  _338
REMARK  124  A    between atoms: _342  and  _343
REMARK  125  A    between atoms: _349  and  _350
REMARK  126  A    between atoms: _355  and  _357
REMARK  127  A    between atoms: _357  and  _358
REMARK  128  A    between atoms: _357  and  _360
REMARK  129  A    between atoms: _360  and  _361
REMARK  130  A    between atoms: _364  and  _366
REMARK  131  A    between atoms: _366  and  _367
REMARK  132  A    between atoms: _366  and  _369
REMARK  133  A    between atoms: _369  and  _370
REMARK  134  A    between atoms: _373  and  _375
REMARK  135  A    between atoms: _375  and  _376
REMARK  136  A    between atoms: _375  and  _378
REMARK  137  A    between atoms: _380  and  _382
REMARK  138  A    between atoms: _382  and  _383
REMARK  139  A    between atoms: _382  and  _385
REMARK  140  A    between atoms: _388  and  _390
REMARK  141  A    between atoms: _390  and  _391
REMARK  142  A    between atoms: _390  and  _393
REMARK  143  A    between atoms: _393  and  _394
REMARK  144  A    between atoms: _404  and  _406
REMARK  145  A    between atoms: _406  and  _407
REMARK  146  A    between atoms: _406  and  _409
REMARK  147  A    between atoms: _409  and  _410
REMARK  148  A    between atoms: _415  and  _417
REMARK  149  A    between atoms: _417  and  _418
REMARK  150  A    between atoms: _417  and  _420
REMARK  151  A    between atoms: _420  and  _421
REMARK  152  A    between atoms: _421  and  _422
REMARK  153  A    between atoms: _422  and  _423
REMARK                            x       y       z     vdW  Elec       q    Type
REMARK                         _______ _______ _______ _____ _____    ______ ____
ROOT
ATOM      1  CA  VAL A   1      17.218  11.543  19.845  0.00  0.00    +0.133 C 
ENDROOT
BRANCH   1   2
ATOM      2  CB  VAL A   1      17.886  10.789  18.683  0.00  0.00    +0.023 C 
ATOM      3  CG2 VAL A   1      18.782  11.686  17.831  0.00  0.00    +0.002 C 
ATOM      4  CG1 VAL A   1      16.892  10.141  17.761  0.00  0.00    +0.002 C 
ENDBRANCH   1   2
BRANCH   1   5
ATOM      5  N   VAL A   1      16.309  12.624  19.435  0.00  0.00    -0.239 NA
ATOM      6  H   VAL A   1      16.335  12.997  18.465  0.00  0.00    +0.142 HD
ENDBRANCH   1   5
BRANCH   1   7
ATOM      7  C   VAL A   1      18.251  11.934  20.854  0.00  0.00    +0.224 C 
ATOM      8  O   VAL A   1      18.929  11.068  21.445  0.00  0.00    -0.287 OA
ENDBRANCH   1   7
TORSDOF 3
REMARK  Name = ../refined-set-2016/3s71/3s71_pocket.pdb
REMARK  153 active torsions:
REMARK  status: ('A' for Active; 'I' for Inactive)
REMARK    1  A    between atoms: _1  and  _5
REMARK    2  A    between atoms: _5  and  _6
REMARK    3  A    between atoms: _5  and  _8
REMARK    4  A    between atoms: _8  and  _9
REMARK    5  A    between atoms: _14  and  _16
REMARK    6  A    between atoms: _16  and  _17
REMARK    7  A    between atoms: _16  and  _19
REMARK    8  A    between atoms: _19  and  _20
REMARK    9  A    between atoms: _30  and  _32
REMARK   10  A    between atoms: _32  and  _33
REMARK   11  A    between atoms: _32  and  _35
REMARK   12  A    between atoms: _35  and  _36
REMARK   13  A    between atoms: _41  and  _42
REMARK   14  A    between atoms: _44  and  _46
REMARK   15  A    between atoms: _46  and  _47
REMARK   16  A    between atoms: _46  and  _49
REMARK   17  A    between atoms: _49  and  _50
REMARK   18  A    between atoms: _53  and  _54
REMARK   19  A    between atoms: _59  and  _61
REMARK   20  A    between atoms: _61  and  _62
REMARK   21  A    between atoms: _61  and  _64
REMARK   22  A    between atoms: _64  and  _65
REMARK   23  A    between atoms: _70  and  _72
REMARK   24  A    between atoms: _72  and  _73
REMARK   25  A    between atoms: _72  and  _75
REMARK   26  A    between atoms: _75  and  _76
REMARK   27  A    between atoms: _81  and  _83
REMARK   28  A    between atoms: _83  and  _84
REMARK   29  A    between atoms: _87  and  _89
REMARK   30  A    between atoms: _89  and  _90
REMARK   31  A    between atoms: _89  and  _92
REMARK   32  A    between atoms: _92  and  _93
REMARK   33  A    between atoms: _98  and  _100
REMARK   34  A    between atoms: _100  and  _101
REMARK   35  A    between atoms: _100  and  _103
REMARK   36  A    between atoms: _103  and  _104
REMARK   37  A    between atoms: _107  and  _109
REMARK   38  A    between atoms: _109  and  _110
REMARK   39  A    between atoms: _109  and  _112
REMARK   40  A    between atoms: _112  and  _113
REMARK   41  A    between atoms: _113  and  _114
REMARK   42  A    between atoms: _119  and  _121
REMARK   43  A    between atoms: _121  and  _122
REMARK   44  A    between atoms: _121  and  _124
REMARK   45  A    between atoms: _124  and  _125
REMARK   46  A    between atoms: _131  and  _133
REMARK   47  A    between atoms: _144  and  _147
REMARK   48  A    between atoms: _147  and  _148
REMARK   49  A    between atoms: _156  and  _157
REMARK   50  A    between atoms: _165  and  _167
REMARK   51  A    between atoms: _167  and  _168
REMARK   52  A    between atoms: _167  and  _170
REMARK   53  A    between atoms: _170  and  _171
REMARK   54  A    between atoms: _171  and  _172
REMARK   55  A    between atoms: _175  and  _177
REMARK   56  A    between atoms: _177  and  _178
REMARK   57  A    between atoms: _177  and  _180
REMARK   58  A    between atoms: _180  and  _181
REMARK   59  A    between atoms: _186  and  _188
REMARK   60  A    between atoms: _188  and  _189
REMARK   61  A    between atoms: _188  and  _191
REMARK   62  A    between atoms: _191  and  _192
REMARK   63  A    between atoms: _192  and  _193
REMARK   64  A    between atoms: _196  and  _198
REMARK   65  A    between atoms: _198  and  _199
REMARK   66  A    between atoms: _198  and  _201
REMARK   67  A    between atoms: _201  and  _202
REMARK   68  A    between atoms: _205  and  _207
REMARK   69  A    between atoms: _207  and  _208
REMARK   70  A    between atoms: _207  and  _210
REMARK   71  A    between atoms: _210  and  _211
REMARK   72  A    between atoms: _212  and  ZN_432
REMARK   73  A    between atoms: _216  and  _218
REMARK   74  A    between atoms: _218  and  _219
REMARK   75  A    between atoms: _218  and  _221
REMARK   76  A    between atoms: _221  and  _222
REMARK   77  A    between atoms: _225  and  _227
REMARK   78  A    between atoms: _227  and  _228
REMARK   79  A    between atoms: _227  and  _230
REMARK   80  A    between atoms: _233  and  _235
REMARK   81  A    between atoms: _235  and  _236
REMARK   82  A    between atoms: _235  and  _238
REMARK   83  A    between atoms: _238  and  _239
REMARK   84  A    between atoms: _244  and  _246
REMARK   85  A    between atoms: _246  and  _247
REMARK   86  A    between atoms: _246  and  _249
REMARK   87  A    between atoms: _249  and  _250
REMARK   88  A    between atoms: _256  and  _258
REMARK   89  A    between atoms: _258  and  _259
REMARK   90  A    between atoms: _258  and  _261
REMARK   91  A    between atoms: _264  and  _266
REMARK   92  A    between atoms: _266  and  _267
REMARK   93  A    between atoms: _266  and  _269
REMARK   94  A    between atoms: _269  and  _270
REMARK   95  A    between atoms: _273  and  _275
REMARK   96  A    between atoms: _275  and  _276
REMARK   97  A    between atoms: _279  and  _281
REMARK   98  A    between atoms: _281  and  _282
REMARK   99  A    between atoms: _281  and  _284
REMARK  100  A    between atoms: _287  and  _289
REMARK  101  A    between atoms: _289  and  _290
REMARK  102  A    between atoms: _289  and  _292
REMARK  103  A    between atoms: _292  and  _293
REMARK  104  A    between atoms: _296  and  _298
REMARK  105  A    between atoms: _298  and  _299
REMARK  106  A    between atoms: _301  and  _303
REMARK  107  A    between atoms: _303  and  _304
REMARK  108  A    between atoms: _306  and  _308
REMARK  109  A    between atoms: _308  and  _309
REMARK  110  A    between atoms: _308  and  _311
REMARK  111  A    between atoms: _311  and  _312
REMARK  112  A    between atoms: _314  and  _316
REMARK  113  A    between atoms: _316  and  _317
REMARK  114  A    between atoms: _316  and  _319
REMARK  115  A    between atoms: _319  and  _320
REMARK  116  A    between atoms: _323  and  _325
REMARK  117  A    between atoms: _325  and  _326
REMARK  118  A    between atoms: _325  and  _328
REMARK  119  A    between atoms: _328  and  _329
REMARK  120  A    between atoms: _332  and  _334
REMARK  121  A    between atoms: _334  and  _335
REMARK  122  A    between atoms: _334  and  _337
REMARK  123  A    between atoms: _337  and  _338
REMARK  124  A    between atoms: _342  and  _343
REMARK  125  A    between atoms: _349  and  _350
REMARK  126  A    between atoms: _355  and  _357
REMARK  127  A    between atoms: _357  and  _358
REMARK  128  A    between atoms: _357  and  _360
REMARK  129  A    between atoms: _360  and  _361
REMARK  130  A    between atoms: _364  and  _366
REMARK  131  A    between atoms: _366  and  _367
REMARK  132  A    between atoms: _366  and  _369
REMARK  133  A    between atoms: _369  and  _370
REMARK  134  A    between atoms: _373  and  _375
REMARK  135  A    between atoms: _375  and  _376
REMARK  136  A    between atoms: _375  and  _378
REMARK  137  A    between atoms: _380  and  _382
REMARK  138  A    between atoms: _382  and  _383
REMARK  139  A    between atoms: _382  and  _385
REMARK  140  A    between atoms: _388  and  _390
REMARK  141  A    between atoms: _390  and  _391
REMARK  142  A    between atoms: _390  and  _393
REMARK  143  A    between atoms: _393  and  _394
REMARK  144  A    between atoms: _404  and  _406
REMARK  145  A    between atoms: _406  and  _407
REMARK  146  A    between atoms: _406  and  _409
REMARK  147  A    between atoms: _409  and  _410
REMARK  148  A    between atoms: _415  and  _417
REMARK  149  A    between atoms: _417  and  _418
REMARK  150  A    between atoms: _417  and  _420
REMARK  151  A    between atoms: _420  and  _421
REMARK  152  A    between atoms: _421  and  _422
REMARK  153  A    between atoms: _422  and  _423
REMARK                            x       y       z     vdW  Elec       q    Type
REMARK                         _______ _______ _______ _____ _____    ______ ____
ROOT
ATOM      1  CA  VAL A   3       9.138   2.788  20.063  0.00  0.00    +0.149 C 
ENDROOT
BRANCH   1   3
ATOM      2  C   ALA A   2       8.651   5.072  20.792  0.00  0.00    +0.241 C 
ATOM      3  N   VAL A   3       9.151   3.859  21.064  0.00  0.00    -0.297 N 
ATOM      4  H   VAL A   3       9.556   3.674  22.004  0.00  0.00    +0.150 HD
ATOM      5  O   ALA A   2       8.289   5.404  19.644  0.00  0.00    -0.273 OA
BRANCH   2   6
ATOM      6  CA  ALA A   2       8.703   6.062  21.916  0.00  0.00    +0.149 C 
ATOM      7  CB  ALA A   2       7.340   6.490  22.277  0.00  0.00    +0.031 C 
BRANCH   6  10
ATOM      8  C   LEU A   1      10.508   7.748  22.077  0.00  0.00    +0.238 C 
ATOM      9  O   LEU A   1      10.752   7.461  23.287  0.00  0.00    -0.274 OA
ATOM     10  N   ALA A   2       9.496   7.222  21.398  0.00  0.00    -0.297 N 
ATOM     11  H   ALA A   2       9.245   7.629  20.475  0.00  0.00    +0.150 HD
BRANCH   8  12
ATOM     12  CA  LEU A   1      11.370   8.714  21.299  0.00  0.00    +0.145 C 
BRANCH  12  13
ATOM     13  N   LEU A   1      12.018   9.656  22.206  0.00  0.00    -0.238 NA
ATOM     14  H   LEU A   1      12.556   9.303  23.023  0.00  0.00    +0.142 HD
ENDBRANCH  12  13
BRANCH  12  15
ATOM     15  CB  LEU A   1      12.401   7.864  20.567  0.00  0.00    +0.026 C 
BRANCH  15  16
ATOM     16  CG  LEU A   1      12.949   8.407  19.309  0.00  0.00    +0.002 C 
ATOM     17  CD2 LEU A   1      13.465   9.769  19.124  0.00  0.00    +0.000 C 
ATOM     18  CD1 LEU A   1      13.828   7.383  18.595  0.00  0.00    +0.000 C 
ENDBRANCH  15  16
ENDBRANCH  12  15
ENDBRANCH   8  12
ENDBRANCH   6  10
ENDBRANCH   2   6
ENDBRANCH   1   3
BRANCH   1  19
ATOM     19  C   VAL A   3       8.180   1.752  20.539  0.00  0.00    +0.241 C 
ATOM     20  O   VAL A   3       8.280   1.239  21.682  0.00  0.00    -0.273 OA
ATOM     21  N   LEU A   4       7.187   1.450  19.707  0.00  0.00    -0.297 N 
ATOM     22  H   LEU A   4       7.090   2.020  18.842  0.00  0.00    +0.150 HD
BRANCH  21  23
ATOM     23  CA  LEU A   4       6.215   0.364  19.926  0.00  0.00    +0.149 C 
BRANCH  23  24
ATOM     24  C   LEU A   4       6.736  -0.873  19.303  0.00  0.00    +0.241 C 
ATOM     25  N   GLY A   5       7.006  -1.889  20.129  0.00  0.00    -0.296 N 
ATOM     26  H   GLY A   5       6.809  -1.783  21.145  0.00  0.00    +0.150 HD
ATOM     27  O   LEU A   4       6.926  -0.922  18.072  0.00  0.00    -0.273 OA
BRANCH  25  28
ATOM     28  CA  GLY A   5       7.572  -3.146  19.639  0.00  0.00    +0.163 C 
BRANCH  28  29
ATOM     29  C   GLY A   5       6.514  -4.245  19.659  0.00  0.00    +0.229 C 
ATOM     30  O   GLY A   5       5.785  -4.369  20.654  0.00  0.00    -0.286 OA
ENDBRANCH  28  29
ENDBRANCH  25  28
ENDBRANCH  23  24
BRANCH  23  31
ATOM     31  CB  LEU A   4       4.855   0.836  19.373  0.00  0.00    +0.029 C 
BRANCH  31  32
ATOM     32  CG  LEU A   4       3.675  -0.135  19.549  0.00  0.00    +0.002 C 
ATOM     33  CD2 LEU A   4       3.386  -0.389  20.970  0.00  0.00    +0.000 C 
ATOM     34  CD1 LEU A   4       2.452   0.524  18.873  0.00  0.00    +0.000 C 
ENDBRANCH  31  32
ENDBRANCH  23  31
ENDBRANCH  21  23
ENDBRANCH   1  19
BRANCH   1  35
ATOM     35  CB  VAL A   3      10.518   2.199  19.729  0.00  0.00    +0.027 C 
ATOM     36  CG2 VAL A   3      11.481   3.285  19.295  0.00  0.00    +0.002 C 
ATOM     37  CG1 VAL A   3      10.373   1.164  18.595  0.00  0.00    +0.002 C 
ENDBRANCH   1  35
TORSDOF 15
REMARK  Name = ../refined-set-2016/3s71/3s71_pocket.pdb
REMARK  153 active torsions:
REMARK  status: ('A' for Active; 'I' for Inactive)
REMARK    1  A    between atoms: _1  and  _5
REMARK    2  A    between atoms: _5  and  _6
REMARK    3  A    between atoms: _5  and  _8
REMARK    4  A    between atoms: _8  and  _9
REMARK    5  A    between atoms: _14  and  _16
REMARK    6  A    between atoms: _16  and  _17
REMARK    7  A    between atoms: _16  and  _19
REMARK    8  A    between atoms: _19  and  _20
REMARK    9  A    between atoms: _30  and  _32
REMARK   10  A    between atoms: _32  and  _33
REMARK   11  A    between atoms: _32  and  _35
REMARK   12  A    between atoms: _35  and  _36
REMARK   13  A    between atoms: _41  and  _42
REMARK   14  A    between atoms: _44  and  _46
REMARK   15  A    between atoms: _46  and  _47
REMARK   16  A    between atoms: _46  and  _49
REMARK   17  A    between atoms: _49  and  _50
REMARK   18  A    between atoms: _53  and  _54
REMARK   19  A    between atoms: _59  and  _61
REMARK   20  A    between atoms: _61  and  _62
REMARK   21  A    between atoms: _61  and  _64
REMARK   22  A    between atoms: _64  and  _65
REMARK   23  A    between atoms: _70  and  _72
REMARK   24  A    between atoms: _72  and  _73
REMARK   25  A    between atoms: _72  and  _75
REMARK   26  A    between atoms: _75  and  _76
REMARK   27  A    between atoms: _81  and  _83
REMARK   28  A    between atoms: _83  and  _84
REMARK   29  A    between atoms: _87  and  _89
REMARK   30  A    between atoms: _89  and  _90
REMARK   31  A    between atoms: _89  and  _92
REMARK   32  A    between atoms: _92  and  _93
REMARK   33  A    between atoms: _98  and  _100
REMARK   34  A    between atoms: _100  and  _101
REMARK   35  A    between atoms: _100  and  _103
REMARK   36  A    between atoms: _103  and  _104
REMARK   37  A    between atoms: _107  and  _109
REMARK   38  A    between atoms: _109  and  _110
REMARK   39  A    between atoms: _109  and  _112
REMARK   40  A    between atoms: _112  and  _113
REMARK   41  A    between atoms: _113  and  _114
REMARK   42  A    between atoms: _119  and  _121
REMARK   43  A    between atoms: _121  and  _122
REMARK   44  A    between atoms: _121  and  _124
REMARK   45  A    between atoms: _124  and  _125
REMARK   46  A    between atoms: _131  and  _133
REMARK   47  A    between atoms: _144  and  _147
REMARK   48  A    between atoms: _147  and  _148
REMARK   49  A    between atoms: _156  and  _157
REMARK   50  A    between atoms: _165  and  _167
REMARK   51  A    between atoms: _167  and  _168
REMARK   52  A    between atoms: _167  and  _170
REMARK   53  A    between atoms: _170  and  _171
REMARK   54  A    between atoms: _171  and  _172
REMARK   55  A    between atoms: _175  and  _177
REMARK   56  A    between atoms: _177  and  _178
REMARK   57  A    between atoms: _177  and  _180
REMARK   58  A    between atoms: _180  and  _181
REMARK   59  A    between atoms: _186  and  _188
REMARK   60  A    between atoms: _188  and  _189
REMARK   61  A    between atoms: _188  and  _191
REMARK   62  A    between atoms: _191  and  _192
REMARK   63  A    between atoms: _192  and  _193
REMARK   64  A    between atoms: _196  and  _198
REMARK   65  A    between atoms: _198  and  _199
REMARK   66  A    between atoms: _198  and  _201
REMARK   67  A    between atoms: _201  and  _202
REMARK   68  A    between atoms: _205  and  _207
REMARK   69  A    between atoms: _207  and  _208
REMARK   70  A    between atoms: _207  and  _210
REMARK   71  A    between atoms: _210  and  _211
REMARK   72  A    between atoms: _212  and  ZN_432
REMARK   73  A    between atoms: _216  and  _218
REMARK   74  A    between atoms: _218  and  _219
REMARK   75  A    between atoms: _218  and  _221
REMARK   76  A    between atoms: _221  and  _222
REMARK   77  A    between atoms: _225  and  _227
REMARK   78  A    between atoms: _227  and  _228
REMARK   79  A    between atoms: _227  and  _230
REMARK   80  A    between atoms: _233  and  _235
REMARK   81  A    between atoms: _235  and  _236
REMARK   82  A    between atoms: _235  and  _238
REMARK   83  A    between atoms: _238  and  _239
REMARK   84  A    between atoms: _244  and  _246
REMARK   85  A    between atoms: _246  and  _247
REMARK   86  A    between atoms: _246  and  _249
REMARK   87  A    between atoms: _249  and  _250
REMARK   88  A    between atoms: _256  and  _258
REMARK   89  A    between atoms: _258  and  _259
REMARK   90  A    between atoms: _258  and  _261
REMARK   91  A    between atoms: _264  and  _266
REMARK   92  A    between atoms: _266  and  _267
REMARK   93  A    between atoms: _266  and  _269
REMARK   94  A    between atoms: _269  and  _270
REMARK   95  A    between atoms: _273  and  _275
REMARK   96  A    between atoms: _275  and  _276
REMARK   97  A    between atoms: _279  and  _281
REMARK   98  A    between atoms: _281  and  _282
REMARK   99  A    between atoms: _281  and  _284
REMARK  100  A    between atoms: _287  and  _289
REMARK  101  A    between atoms: _289  and  _290
REMARK  102  A    between atoms: _289  and  _292
REMARK  103  A    between atoms: _292  and  _293
REMARK  104  A    between atoms: _296  and  _298
REMARK  105  A    between atoms: _298  and  _299
REMARK  106  A    between atoms: _301  and  _303
REMARK  107  A    between atoms: _303  and  _304
REMARK  108  A    between atoms: _306  and  _308
REMARK  109  A    between atoms: _308  and  _309
REMARK  110  A    between atoms: _308  and  _311
REMARK  111  A    between atoms: _311  and  _312
REMARK  112  A    between atoms: _314  and  _316
REMARK  113  A    between atoms: _316  and  _317
REMARK  114  A    between atoms: _316  and  _319
REMARK  115  A    between atoms: _319  and  _320
REMARK  116  A    between atoms: _323  and  _325
REMARK  117  A    between atoms: _325  and  _326
REMARK  118  A    between atoms: _325  and  _328
REMARK  119  A    between atoms: _328  and  _329
REMARK  120  A    between atoms: _332  and  _334
REMARK  121  A    between atoms: _334  and  _335
REMARK  122  A    between atoms: _334  and  _337
REMARK  123  A    between atoms: _337  and  _338
REMARK  124  A    between atoms: _342  and  _343
REMARK  125  A    between atoms: _349  and  _350
REMARK  126  A    between atoms: _355  and  _357
REMARK  127  A    between atoms: _357  and  _358
REMARK  128  A    between atoms: _357  and  _360
REMARK  129  A    between atoms: _360  and  _361
REMARK  130  A    between atoms: _364  and  _366
REMARK  131  A    between atoms: _366  and  _367
REMARK  132  A    between atoms: _366  and  _369
REMARK  133  A    between atoms: _369  and  _370
REMARK  134  A    between atoms: _373  and  _375
REMARK  135  A    between atoms: _375  and  _376
REMARK  136  A    between atoms: _375  and  _378
REMARK  137  A    between atoms: _380  and  _382
REMARK  138  A    between atoms: _382  and  _383
REMARK  139  A    between atoms: _382  and  _385
REMARK  140  A    between atoms: _388  and  _390
REMARK  141  A    between atoms: _390  and  _391
REMARK  142  A    between atoms: _390  and  _393
REMARK  143  A    between atoms: _393  and  _394
REMARK  144  A    between atoms: _404  and  _406
REMARK  145  A    between atoms: _406  and  _407
REMARK  146  A    between atoms: _406  and  _409
REMARK  147  A    between atoms: _409  and  _410
REMARK  148  A    between atoms: _415  and  _417
REMARK  149  A    between atoms: _417  and  _418
REMARK  150  A    between atoms: _417  and  _420
REMARK  151  A    between atoms: _420  and  _421
REMARK  152  A    between atoms: _421  and  _422
REMARK  153  A    between atoms: _422  and  _423
REMARK                            x       y       z     vdW  Elec       q    Type
REMARK                         _______ _______ _______ _____ _____    ______ ____
ROOT
ATOM      1  CA  THR A   5      21.190   0.224  16.003  0.00  0.00    +0.176 C 
ENDROOT
BRANCH   1   2
ATOM      2  C   THR A   5      21.910   1.530  16.292  0.00  0.00    +0.246 C 
ATOM      3  O   THR A   5      21.372   2.473  16.890  0.00  0.00    -0.273 OA
ATOM      4  N   PRO A   6      23.196   1.607  15.851  0.00  0.00    -0.272 N 
ATOM      5  CA  PRO A   6      23.936   2.876  15.969  0.00  0.00    +0.152 C 
ATOM      6  CB  PRO A   6      25.235   2.525  15.109  0.00  0.00    +0.031 C 
ATOM      7  CG  PRO A   6      25.430   1.136  15.324  0.00  0.00    +0.024 C 
ATOM      8  CD  PRO A   6      24.012   0.516  15.274  0.00  0.00    +0.094 C 
BRANCH   5   9
ATOM      9  C   PRO A   6      23.136   4.022  15.485  0.00  0.00    +0.244 C 
ATOM     10  N   PRO A   7      23.096   5.152  16.180  0.00  0.00    -0.272 N 
ATOM     11  CA  PRO A   7      24.027   5.506  17.275  0.00  0.00    +0.152 C 
ATOM     12  CB  PRO A   7      24.033   7.077  17.235  0.00  0.00    +0.031 C 
ATOM     13  CG  PRO A   7      22.629   7.429  16.780  0.00  0.00    +0.024 C 
ATOM     14  CD  PRO A   7      22.273   6.301  15.707  0.00  0.00    +0.094 C 
ATOM     15  O   PRO A   6      22.494   3.937  14.415  0.00  0.00    -0.273 OA
BRANCH  11  16
ATOM     16  C   PRO A   7      23.712   4.990  18.680  0.00  0.00    +0.241 C 
ATOM     17  O   PRO A   7      24.398   5.408  19.609  0.00  0.00    -0.273 OA
ATOM     18  N   LEU A   8      22.663   4.150  18.863  0.00  0.00    -0.297 N 
ATOM     19  H   LEU A   8      22.001   3.980  18.079  0.00  0.00    +0.150 HD
BRANCH  18  20
ATOM     20  CA  LEU A   8      22.446   3.472  20.159  0.00  0.00    +0.149 C 
BRANCH  20  21
ATOM     21  C   LEU A   8      22.121   4.509  21.298  0.00  0.00    +0.241 C 
ATOM     22  O   LEU A   8      22.285   4.198  22.454  0.00  0.00    -0.273 OA
ATOM     23  N   LEU A   9      21.541   5.647  20.896  0.00  0.00    -0.298 N 
ATOM     24  H   LEU A   9      21.264   5.769  19.901  0.00  0.00    +0.150 HD
BRANCH  23  25
ATOM     25  CA  LEU A   9      21.300   6.716  21.863  0.00  0.00    +0.137 C 
BRANCH  25  26
ATOM     26  C   LEU A   9      20.248   6.306  22.836  0.00  0.00    +0.227 C 
ATOM     27  O   LEU A   9      19.228   5.619  22.500  0.00  0.00    -0.286 OA
ENDBRANCH  25  26
BRANCH  25  28
ATOM     28  CB  LEU A   9      20.888   7.997  21.088  0.00  0.00    +0.028 C 
BRANCH  28  29
ATOM     29  CG  LEU A   9      22.010   8.538  20.203  0.00  0.00    +0.002 C 
ATOM     30  CD2 LEU A   9      23.185   9.101  21.038  0.00  0.00    +0.000 C 
ATOM     31  CD1 LEU A   9      21.470   9.632  19.248  0.00  0.00    +0.000 C 
ENDBRANCH  28  29
ENDBRANCH  25  28
ENDBRANCH  23  25
ENDBRANCH  20  21
BRANCH  20  32
ATOM     32  CB  LEU A   8      23.692   2.648  20.519  0.00  0.00    +0.029 C 
BRANCH  32  33
ATOM     33  CG  LEU A   8      24.011   1.521  19.533  0.00  0.00    +0.002 C 
ATOM     34  CD2 LEU A   8      25.313   0.820  19.984  0.00  0.00    +0.000 C 
ATOM     35  CD1 LEU A   8      22.858   0.484  19.389  0.00  0.00    +0.000 C 
ENDBRANCH  32  33
ENDBRANCH  20  32
ENDBRANCH  18  20
ENDBRANCH  11  16
ENDBRANCH   5   9
ENDBRANCH   1   2
BRANCH   1  38
ATOM     36  C   THR A   4      19.983  -0.907  17.767  0.00  0.00    +0.243 C 
ATOM     37  O   THR A   4      20.622  -1.952  17.659  0.00  0.00    -0.273 OA
ATOM     38  N   THR A   5      20.082   0.157  16.974  0.00  0.00    -0.295 N 
ATOM     39  H   THR A   5      19.389   0.929  17.038  0.00  0.00    +0.150 HD
BRANCH  36  40
ATOM     40  CA  THR A   4      19.015  -0.765  18.945  0.00  0.00    +0.176 C 
BRANCH  40  43
ATOM     41  C   LEU A   3      18.717   1.442  19.872  0.00  0.00    +0.241 C 
ATOM     42  O   LEU A   3      19.789   1.308  20.548  0.00  0.00    -0.273 OA
ATOM     43  N   THR A   4      18.331   0.507  19.022  0.00  0.00    -0.295 N 
ATOM     44  H   THR A   4      17.520   0.689  18.397  0.00  0.00    +0.150 HD
BRANCH  41  45
ATOM     45  CA  LEU A   3      17.962   2.727  19.906  0.00  0.00    +0.149 C 
BRANCH  45  48
ATOM     46  C   SER A   2      17.457   2.589  22.252  0.00  0.00    +0.243 C 
ATOM     47  O   SER A   2      16.692   1.620  22.072  0.00  0.00    -0.273 OA
ATOM     48  N   LEU A   3      18.014   3.262  21.268  0.00  0.00    -0.297 N 
ATOM     49  H   LEU A   3      18.488   4.168  21.456  0.00  0.00    +0.150 HD
BRANCH  46  50
ATOM     50  CA  SER A   2      17.883   2.972  23.674  0.00  0.00    +0.178 C 
BRANCH  50  53
ATOM     51  C   GLY A   1      16.679   3.071  25.775  0.00  0.00    +0.240 C 
ATOM     52  O   GLY A   1      16.744   4.283  25.854  0.00  0.00    -0.274 OA
ATOM     53  N   SER A   2      17.074   2.343  24.717  0.00  0.00    -0.295 N 
ATOM     54  H   SER A   2      16.807   1.341  24.641  0.00  0.00    +0.150 HD
BRANCH  51  55
ATOM     55  CA  GLY A   1      16.135   2.200  26.859  0.00  0.00    +0.169 C 
BRANCH  55  56
ATOM     56  N   GLY A   1      15.013   2.799  27.562  0.00  0.00    -0.236 NA
ATOM     57  H   GLY A   1      14.391   3.473  27.071  0.00  0.00    +0.142 HD
ENDBRANCH  55  56
ENDBRANCH  51  55
ENDBRANCH  50  53
BRANCH  50  58
ATOM     58  CB  SER A   2      19.407   2.585  23.802  0.00  0.00    +0.166 C 
BRANCH  58  59
ATOM     59  OG  SER A   2      19.662   1.261  23.329  0.00  0.00    -0.380 OA
ATOM     60  H   SER A   2      19.404   1.197  22.375  0.00  0.00    +0.211 HD
ENDBRANCH  58  59
ENDBRANCH  50  58
ENDBRANCH  46  50
ENDBRANCH  45  48
BRANCH  45  61
ATOM     61  CB  LEU A   3      18.646   3.760  18.946  0.00  0.00    +0.029 C 
BRANCH  61  62
ATOM     62  CG  LEU A   3      18.095   5.150  18.979  0.00  0.00    +0.002 C 
ATOM     63  CD2 LEU A   3      16.605   5.165  18.528  0.00  0.00    +0.000 C 
ATOM     64  CD1 LEU A   3      18.958   6.081  18.063  0.00  0.00    +0.000 C 
ENDBRANCH  61  62
ENDBRANCH  45  61
ENDBRANCH  41  45
ENDBRANCH  40  43
BRANCH  40  65
ATOM     65  CB  THR A   4      18.044  -1.944  18.947  0.00  0.00    +0.137 C 
ATOM     66  CG2 THR A   4      17.022  -1.891  20.071  0.00  0.00    +0.034 C 
BRANCH  65  67
ATOM     67  OG1 THR A   4      17.392  -1.954  17.659  0.00  0.00    -0.382 OA
ATOM     68  HG1 THR A   4      16.751  -2.708  17.621  0.00  0.00    +0.210 HD
ENDBRANCH  65  67
ENDBRANCH  40  65
ENDBRANCH  36  40
ENDBRANCH   1  38
BRANCH   1  69
ATOM     69  CB  THR A   5      20.685   0.251  14.544  0.00  0.00    +0.137 C 
ATOM     70  CG2 THR A   5      20.069  -1.107  14.180  0.00  0.00    +0.034 C 
BRANCH  69  71
ATOM     71  OG1 THR A   5      19.681   1.265  14.370  0.00  0.00    -0.382 OA
ATOM     72  HG1 THR A   5      19.372   1.264  13.429  0.00  0.00    +0.210 HD
ENDBRANCH  69  71
ENDBRANCH   1  69
TORSDOF 28
REMARK  Name = ../refined-set-2016/3s71/3s71_pocket.pdb
REMARK  153 active torsions:
REMARK  status: ('A' for Active; 'I' for Inactive)
REMARK    1  A    between atoms: _1  and  _5
REMARK    2  A    between atoms: _5  and  _6
REMARK    3  A    between atoms: _5  and  _8
REMARK    4  A    between atoms: _8  and  _9
REMARK    5  A    between atoms: _14  and  _16
REMARK    6  A    between atoms: _16  and  _17
REMARK    7  A    between atoms: _16  and  _19
REMARK    8  A    between atoms: _19  and  _20
REMARK    9  A    between atoms: _30  and  _32
REMARK   10  A    between atoms: _32  and  _33
REMARK   11  A    between atoms: _32  and  _35
REMARK   12  A    between atoms: _35  and  _36
REMARK   13  A    between atoms: _41  and  _42
REMARK   14  A    between atoms: _44  and  _46
REMARK   15  A    between atoms: _46  and  _47
REMARK   16  A    between atoms: _46  and  _49
REMARK   17  A    between atoms: _49  and  _50
REMARK   18  A    between atoms: _53  and  _54
REMARK   19  A    between atoms: _59  and  _61
REMARK   20  A    between atoms: _61  and  _62
REMARK   21  A    between atoms: _61  and  _64
REMARK   22  A    between atoms: _64  and  _65
REMARK   23  A    between atoms: _70  and  _72
REMARK   24  A    between atoms: _72  and  _73
REMARK   25  A    between atoms: _72  and  _75
REMARK   26  A    between atoms: _75  and  _76
REMARK   27  A    between atoms: _81  and  _83
REMARK   28  A    between atoms: _83  and  _84
REMARK   29  A    between atoms: _87  and  _89
REMARK   30  A    between atoms: _89  and  _90
REMARK   31  A    between atoms: _89  and  _92
REMARK   32  A    between atoms: _92  and  _93
REMARK   33  A    between atoms: _98  and  _100
REMARK   34  A    between atoms: _100  and  _101
REMARK   35  A    between atoms: _100  and  _103
REMARK   36  A    between atoms: _103  and  _104
REMARK   37  A    between atoms: _107  and  _109
REMARK   38  A    between atoms: _109  and  _110
REMARK   39  A    between atoms: _109  and  _112
REMARK   40  A    between atoms: _112  and  _113
REMARK   41  A    between atoms: _113  and  _114
REMARK   42  A    between atoms: _119  and  _121
REMARK   43  A    between atoms: _121  and  _122
REMARK   44  A    between atoms: _121  and  _124
REMARK   45  A    between atoms: _124  and  _125
REMARK   46  A    between atoms: _131  and  _133
REMARK   47  A    between atoms: _144  and  _147
REMARK   48  A    between atoms: _147  and  _148
REMARK   49  A    between atoms: _156  and  _157
REMARK   50  A    between atoms: _165  and  _167
REMARK   51  A    between atoms: _167  and  _168
REMARK   52  A    between atoms: _167  and  _170
REMARK   53  A    between atoms: _170  and  _171
REMARK   54  A    between atoms: _171  and  _172
REMARK   55  A    between atoms: _175  and  _177
REMARK   56  A    between atoms: _177  and  _178
REMARK   57  A    between atoms: _177  and  _180
REMARK   58  A    between atoms: _180  and  _181
REMARK   59  A    between atoms: _186  and  _188
REMARK   60  A    between atoms: _188  and  _189
REMARK   61  A    between atoms: _188  and  _191
REMARK   62  A    between atoms: _191  and  _192
REMARK   63  A    between atoms: _192  and  _193
REMARK   64  A    between atoms: _196  and  _198
REMARK   65  A    between atoms: _198  and  _199
REMARK   66  A    between atoms: _198  and  _201
REMARK   67  A    between atoms: _201  and  _202
REMARK   68  A    between atoms: _205  and  _207
REMARK   69  A    between atoms: _207  and  _208
REMARK   70  A    between atoms: _207  and  _210
REMARK   71  A    between atoms: _210  and  _211
REMARK   72  A    between atoms: _212  and  ZN_432
REMARK   73  A    between atoms: _216  and  _218
REMARK   74  A    between atoms: _218  and  _219
REMARK   75  A    between atoms: _218  and  _221
REMARK   76  A    between atoms: _221  and  _222
REMARK   77  A    between atoms: _225  and  _227
REMARK   78  A    between atoms: _227  and  _228
REMARK   79  A    between atoms: _227  and  _230
REMARK   80  A    between atoms: _233  and  _235
REMARK   81  A    between atoms: _235  and  _236
REMARK   82  A    between atoms: _235  and  _238
REMARK   83  A    between atoms: _238  and  _239
REMARK   84  A    between atoms: _244  and  _246
REMARK   85  A    between atoms: _246  and  _247
REMARK   86  A    between atoms: _246  and  _249
REMARK   87  A    between atoms: _249  and  _250
REMARK   88  A    between atoms: _256  and  _258
REMARK   89  A    between atoms: _258  and  _259
REMARK   90  A    between atoms: _258  and  _261
REMARK   91  A    between atoms: _264  and  _266
REMARK   92  A    between atoms: _266  and  _267
REMARK   93  A    between atoms: _266  and  _269
REMARK   94  A    between atoms: _269  and  _270
REMARK   95  A    between atoms: _273  and  _275
REMARK   96  A    between atoms: _275  and  _276
REMARK   97  A    between atoms: _279  and  _281
REMARK   98  A    between atoms: _281  and  _282
REMARK   99  A    between atoms: _281  and  _284
REMARK  100  A    between atoms: _287  and  _289
REMARK  101  A    between atoms: _289  and  _290
REMARK  102  A    between atoms: _289  and  _292
REMARK  103  A    between atoms: _292  and  _293
REMARK  104  A    between atoms: _296  and  _298
REMARK  105  A    between atoms: _298  and  _299
REMARK  106  A    between atoms: _301  and  _303
REMARK  107  A    between atoms: _303  and  _304
REMARK  108  A    between atoms: _306  and  _308
REMARK  109  A    between atoms: _308  and  _309
REMARK  110  A    between atoms: _308  and  _311
REMARK  111  A    between atoms: _311  and  _312
REMARK  112  A    between atoms: _314  and  _316
REMARK  113  A    between atoms: _316  and  _317
REMARK  114  A    between atoms: _316  and  _319
REMARK  115  A    between atoms: _319  and  _320
REMARK  116  A    between atoms: _323  and  _325
REMARK  117  A    between atoms: _325  and  _326
REMARK  118  A    between atoms: _325  and  _328
REMARK  119  A    between atoms: _328  and  _329
REMARK  120  A    between atoms: _332  and  _334
REMARK  121  A    between atoms: _334  and  _335
REMARK  122  A    between atoms: _334  and  _337
REMARK  123  A    between atoms: _337  and  _338
REMARK  124  A    between atoms: _342  and  _343
REMARK  125  A    between atoms: _349  and  _350
REMARK  126  A    between atoms: _355  and  _357
REMARK  127  A    between atoms: _357  and  _358
REMARK  128  A    between atoms: _357  and  _360
REMARK  129  A    between atoms: _360  and  _361
REMARK  130  A    between atoms: _364  and  _366
REMARK  131  A    between atoms: _366  and  _367
REMARK  132  A    between atoms: _366  and  _369
REMARK  133  A    between atoms: _369  and  _370
REMARK  134  A    between atoms: _373  and  _375
REMARK  135  A    between atoms: _375  and  _376
REMARK  136  A    between atoms: _375  and  _378
REMARK  137  A    between atoms: _380  and  _382
REMARK  138  A    between atoms: _382  and  _383
REMARK  139  A    between atoms: _382  and  _385
REMARK  140  A    between atoms: _388  and  _390
REMARK  141  A    between atoms: _390  and  _391
REMARK  142  A    between atoms: _390  and  _393
REMARK  143  A    between atoms: _393  and  _394
REMARK  144  A    between atoms: _404  and  _406
REMARK  145  A    between atoms: _406  and  _407
REMARK  146  A    between atoms: _406  and  _409
REMARK  147  A    between atoms: _409  and  _410
REMARK  148  A    between atoms: _415  and  _417
REMARK  149  A    between atoms: _417  and  _418
REMARK  150  A    between atoms: _417  and  _420
REMARK  151  A    between atoms: _420  and  _421
REMARK  152  A    between atoms: _421  and  _422
REMARK  153  A    between atoms: _422  and  _423
REMARK                            x       y       z     vdW  Elec       q    Type
REMARK                         _______ _______ _______ _____ _____    ______ ____
ROOT
ATOM      1  C   CYS A   1      15.058   7.676  24.027  0.00  0.00    +0.239 C 
ATOM      2  N   VAL A   2      14.902   6.364  24.302  0.00  0.00    -0.298 N 
ATOM      3  H   VAL A   2      15.673   5.834  24.756  0.00  0.00    +0.150 HD
ATOM      4  O   CYS A   1      14.133   8.399  23.637  0.00  0.00    -0.274 OA
ENDROOT
BRANCH   1   5
ATOM      5  CA  CYS A   1      16.457   8.287  24.164  0.00  0.00    +0.156 C 
BRANCH   5   6
ATOM      6  N   CYS A   1      17.486   7.271  24.349  0.00  0.00    -0.237 NA
ATOM      7  H   CYS A   1      17.519   6.480  23.674  0.00  0.00    +0.142 HD
ENDBRANCH   5   6
BRANCH   5   8
ATOM      8  CB  CYS A   1      16.760   9.125  22.898  0.00  0.00    +0.095 C 
ATOM      9  SG  CYS A   1      16.770   8.112  21.364  0.00  0.00    -0.080 S 
ENDBRANCH   5   8
ENDBRANCH   1   5
BRANCH   2  10
ATOM     10  CA  VAL A   2      13.626   5.671  23.957  0.00  0.00    +0.137 C 
BRANCH  10  11
ATOM     11  CB  VAL A   2      13.964   4.409  23.153  0.00  0.00    +0.026 C 
ATOM     12  CG2 VAL A   2      12.685   3.667  22.722  0.00  0.00    +0.002 C 
ATOM     13  CG1 VAL A   2      14.760   4.769  21.880  0.00  0.00    +0.002 C 
ENDBRANCH  10  11
BRANCH  10  14
ATOM     14  C   VAL A   2      12.866   5.277  25.185  0.00  0.00    +0.227 C 
ATOM     15  O   VAL A   2      13.431   4.600  26.098  0.00  0.00    -0.286 OA
ENDBRANCH  10  14
ENDBRANCH   2  10
TORSDOF 6
REMARK  Name = ../refined-set-2016/3s71/3s71_pocket.pdb
REMARK  153 active torsions:
REMARK  status: ('A' for Active; 'I' for Inactive)
REMARK    1  A    between atoms: _1  and  _5
REMARK    2  A    between atoms: _5  and  _6
REMARK    3  A    between atoms: _5  and  _8
REMARK    4  A    between atoms: _8  and  _9
REMARK    5  A    between atoms: _14  and  _16
REMARK    6  A    between atoms: _16  and  _17
REMARK    7  A    between atoms: _16  and  _19
REMARK    8  A    between atoms: _19  and  _20
REMARK    9  A    between atoms: _30  and  _32
REMARK   10  A    between atoms: _32  and  _33
REMARK   11  A    between atoms: _32  and  _35
REMARK   12  A    between atoms: _35  and  _36
REMARK   13  A    between atoms: _41  and  _42
REMARK   14  A    between atoms: _44  and  _46
REMARK   15  A    between atoms: _46  and  _47
REMARK   16  A    between atoms: _46  and  _49
REMARK   17  A    between atoms: _49  and  _50
REMARK   18  A    between atoms: _53  and  _54
REMARK   19  A    between atoms: _59  and  _61
REMARK   20  A    between atoms: _61  and  _62
REMARK   21  A    between atoms: _61  and  _64
REMARK   22  A    between atoms: _64  and  _65
REMARK   23  A    between atoms: _70  and  _72
REMARK   24  A    between atoms: _72  and  _73
REMARK   25  A    between atoms: _72  and  _75
REMARK   26  A    between atoms: _75  and  _76
REMARK   27  A    between atoms: _81  and  _83
REMARK   28  A    between atoms: _83  and  _84
REMARK   29  A    between atoms: _87  and  _89
REMARK   30  A    between atoms: _89  and  _90
REMARK   31  A    between atoms: _89  and  _92
REMARK   32  A    between atoms: _92  and  _93
REMARK   33  A    between atoms: _98  and  _100
REMARK   34  A    between atoms: _100  and  _101
REMARK   35  A    between atoms: _100  and  _103
REMARK   36  A    between atoms: _103  and  _104
REMARK   37  A    between atoms: _107  and  _109
REMARK   38  A    between atoms: _109  and  _110
REMARK   39  A    between atoms: _109  and  _112
REMARK   40  A    between atoms: _112  and  _113
REMARK   41  A    between atoms: _113  and  _114
REMARK   42  A    between atoms: _119  and  _121
REMARK   43  A    between atoms: _121  and  _122
REMARK   44  A    between atoms: _121  and  _124
REMARK   45  A    between atoms: _124  and  _125
REMARK   46  A    between atoms: _131  and  _133
REMARK   47  A    between atoms: _144  and  _147
REMARK   48  A    between atoms: _147  and  _148
REMARK   49  A    between atoms: _156  and  _157
REMARK   50  A    between atoms: _165  and  _167
REMARK   51  A    between atoms: _167  and  _168
REMARK   52  A    between atoms: _167  and  _170
REMARK   53  A    between atoms: _170  and  _171
REMARK   54  A    between atoms: _171  and  _172
REMARK   55  A    between atoms: _175  and  _177
REMARK   56  A    between atoms: _177  and  _178
REMARK   57  A    between atoms: _177  and  _180
REMARK   58  A    between atoms: _180  and  _181
REMARK   59  A    between atoms: _186  and  _188
REMARK   60  A    between atoms: _188  and  _189
REMARK   61  A    between atoms: _188  and  _191
REMARK   62  A    between atoms: _191  and  _192
REMARK   63  A    between atoms: _192  and  _193
REMARK   64  A    between atoms: _196  and  _198
REMARK   65  A    between atoms: _198  and  _199
REMARK   66  A    between atoms: _198  and  _201
REMARK   67  A    between atoms: _201  and  _202
REMARK   68  A    between atoms: _205  and  _207
REMARK   69  A    between atoms: _207  and  _208
REMARK   70  A    between atoms: _207  and  _210
REMARK   71  A    between atoms: _210  and  _211
REMARK   72  A    between atoms: _212  and  ZN_432
REMARK   73  A    between atoms: _216  and  _218
REMARK   74  A    between atoms: _218  and  _219
REMARK   75  A    between atoms: _218  and  _221
REMARK   76  A    between atoms: _221  and  _222
REMARK   77  A    between atoms: _225  and  _227
REMARK   78  A    between atoms: _227  and  _228
REMARK   79  A    between atoms: _227  and  _230
REMARK   80  A    between atoms: _233  and  _235
REMARK   81  A    between atoms: _235  and  _236
REMARK   82  A    between atoms: _235  and  _238
REMARK   83  A    between atoms: _238  and  _239
REMARK   84  A    between atoms: _244  and  _246
REMARK   85  A    between atoms: _246  and  _247
REMARK   86  A    between atoms: _246  and  _249
REMARK   87  A    between atoms: _249  and  _250
REMARK   88  A    between atoms: _256  and  _258
REMARK   89  A    between atoms: _258  and  _259
REMARK   90  A    between atoms: _258  and  _261
REMARK   91  A    between atoms: _264  and  _266
REMARK   92  A    between atoms: _266  and  _267
REMARK   93  A    between atoms: _266  and  _269
REMARK   94  A    between atoms: _269  and  _270
REMARK   95  A    between atoms: _273  and  _275
REMARK   96  A    between atoms: _275  and  _276
REMARK   97  A    between atoms: _279  and  _281
REMARK   98  A    between atoms: _281  and  _282
REMARK   99  A    between atoms: _281  and  _284
REMARK  100  A    between atoms: _287  and  _289
REMARK  101  A    between atoms: _289  and  _290
REMARK  102  A    between atoms: _289  and  _292
REMARK  103  A    between atoms: _292  and  _293
REMARK  104  A    between atoms: _296  and  _298
REMARK  105  A    between atoms: _298  and  _299
REMARK  106  A    between atoms: _301  and  _303
REMARK  107  A    between atoms: _303  and  _304
REMARK  108  A    between atoms: _306  and  _308
REMARK  109  A    between atoms: _308  and  _309
REMARK  110  A    between atoms: _308  and  _311
REMARK  111  A    between atoms: _311  and  _312
REMARK  112  A    between atoms: _314  and  _316
REMARK  113  A    between atoms: _316  and  _317
REMARK  114  A    between atoms: _316  and  _319
REMARK  115  A    between atoms: _319  and  _320
REMARK  116  A    between atoms: _323  and  _325
REMARK  117  A    between atoms: _325  and  _326
REMARK  118  A    between atoms: _325  and  _328
REMARK  119  A    between atoms: _328  and  _329
REMARK  120  A    between atoms: _332  and  _334
REMARK  121  A    between atoms: _334  and  _335
REMARK  122  A    between atoms: _334  and  _337
REMARK  123  A    between atoms: _337  and  _338
REMARK  124  A    between atoms: _342  and  _343
REMARK  125  A    between atoms: _349  and  _350
REMARK  126  A    between atoms: _355  and  _357
REMARK  127  A    between atoms: _357  and  _358
REMARK  128  A    between atoms: _357  and  _360
REMARK  129  A    between atoms: _360  and  _361
REMARK  130  A    between atoms: _364  and  _366
REMARK  131  A    between atoms: _366  and  _367
REMARK  132  A    between atoms: _366  and  _369
REMARK  133  A    between atoms: _369  and  _370
REMARK  134  A    between atoms: _373  and  _375
REMARK  135  A    between atoms: _375  and  _376
REMARK  136  A    between atoms: _375  and  _378
REMARK  137  A    between atoms: _380  and  _382
REMARK  138  A    between atoms: _382  and  _383
REMARK  139  A    between atoms: _382  and  _385
REMARK  140  A    between atoms: _388  and  _390
REMARK  141  A    between atoms: _390  and  _391
REMARK  142  A    between atoms: _390  and  _393
REMARK  143  A    between atoms: _393  and  _394
REMARK  144  A    between atoms: _404  and  _406
REMARK  145  A    between atoms: _406  and  _407
REMARK  146  A    between atoms: _406  and  _409
REMARK  147  A    between atoms: _409  and  _410
REMARK  148  A    between atoms: _415  and  _417
REMARK  149  A    between atoms: _417  and  _418
REMARK  150  A    between atoms: _417  and  _420
REMARK  151  A    between atoms: _420  and  _421
REMARK  152  A    between atoms: _421  and  _422
REMARK  153  A    between atoms: _422  and  _423
REMARK                            x       y       z     vdW  Elec       q    Type
REMARK                         _______ _______ _______ _____ _____    ______ ____
ROOT
ATOM      1  CG  TRP A   1      12.216   0.148  24.232  0.00  0.00    -0.002 A 
ATOM      2  CD1 TRP A   1      13.439   0.742  24.414  0.00  0.00    +0.068 A 
ATOM      3  NE1 TRP A   1      14.152   0.750  23.228  0.00  0.00    -0.352 N 
ATOM      4  HE1 TRP A   1      15.101   1.153  23.091  0.00  0.00    +0.166 HD
ATOM      5  CE2 TRP A   1      13.386   0.130  22.254  0.00  0.00    +0.056 A 
ATOM      6  CZ2 TRP A   1      13.644  -0.135  20.923  0.00  0.00    +0.017 A 
ATOM      7  CH2 TRP A   1      12.708  -0.813  20.218  0.00  0.00    +0.001 A 
ATOM      8  CZ3 TRP A   1      11.474  -1.173  20.766  0.00  0.00    +0.000 A 
ATOM      9  CE3 TRP A   1      11.182  -0.893  22.094  0.00  0.00    +0.001 A 
ATOM     10  CD2 TRP A   1      12.155  -0.242  22.864  0.00  0.00    +0.013 A 
ENDROOT
BRANCH   1  11
ATOM     11  CB  TRP A   1      11.091   0.064  25.189  0.00  0.00    +0.053 C 
BRANCH  11  12
ATOM     12  CA  TRP A   1      10.066   1.225  24.942  0.00  0.00    +0.137 C 
BRANCH  12  13
ATOM     13  N   TRP A   1      10.496   2.445  25.664  0.00  0.00    -0.239 NA
ATOM     14  H   TRP A   1      11.102   2.342  26.503  0.00  0.00    +0.142 HD
ENDBRANCH  12  13
BRANCH  12  15
ATOM     15  C   TRP A   1       8.695   0.811  25.455  0.00  0.00    +0.224 C 
ATOM     16  O   TRP A   1       8.453   0.778  26.673  0.00  0.00    -0.287 OA
ENDBRANCH  12  15
ENDBRANCH  11  12
ENDBRANCH   1  11
TORSDOF 4
REMARK  Name = ../refined-set-2016/3s71/3s71_pocket.pdb
REMARK  153 active torsions:
REMARK  status: ('A' for Active; 'I' for Inactive)
REMARK    1  A    between atoms: _1  and  _5
REMARK    2  A    between atoms: _5  and  _6
REMARK    3  A    between atoms: _5  and  _8
REMARK    4  A    between atoms: _8  and  _9
REMARK    5  A    between atoms: _14  and  _16
REMARK    6  A    between atoms: _16  and  _17
REMARK    7  A    between atoms: _16  and  _19
REMARK    8  A    between atoms: _19  and  _20
REMARK    9  A    between atoms: _30  and  _32
REMARK   10  A    between atoms: _32  and  _33
REMARK   11  A    between atoms: _32  and  _35
REMARK   12  A    between atoms: _35  and  _36
REMARK   13  A    between atoms: _41  and  _42
REMARK   14  A    between atoms: _44  and  _46
REMARK   15  A    between atoms: _46  and  _47
REMARK   16  A    between atoms: _46  and  _49
REMARK   17  A    between atoms: _49  and  _50
REMARK   18  A    between atoms: _53  and  _54
REMARK   19  A    between atoms: _59  and  _61
REMARK   20  A    between atoms: _61  and  _62
REMARK   21  A    between atoms: _61  and  _64
REMARK   22  A    between atoms: _64  and  _65
REMARK   23  A    between atoms: _70  and  _72
REMARK   24  A    between atoms: _72  and  _73
REMARK   25  A    between atoms: _72  and  _75
REMARK   26  A    between atoms: _75  and  _76
REMARK   27  A    between atoms: _81  and  _83
REMARK   28  A    between atoms: _83  and  _84
REMARK   29  A    between atoms: _87  and  _89
REMARK   30  A    between atoms: _89  and  _90
REMARK   31  A    between atoms: _89  and  _92
REMARK   32  A    between atoms: _92  and  _93
REMARK   33  A    between atoms: _98  and  _100
REMARK   34  A    between atoms: _100  and  _101
REMARK   35  A    between atoms: _100  and  _103
REMARK   36  A    between atoms: _103  and  _104
REMARK   37  A    between atoms: _107  and  _109
REMARK   38  A    between atoms: _109  and  _110
REMARK   39  A    between atoms: _109  and  _112
REMARK   40  A    between atoms: _112  and  _113
REMARK   41  A    between atoms: _113  and  _114
REMARK   42  A    between atoms: _119  and  _121
REMARK   43  A    between atoms: _121  and  _122
REMARK   44  A    between atoms: _121  and  _124
REMARK   45  A    between atoms: _124  and  _125
REMARK   46  A    between atoms: _131  and  _133
REMARK   47  A    between atoms: _144  and  _147
REMARK   48  A    between atoms: _147  and  _148
REMARK   49  A    between atoms: _156  and  _157
REMARK   50  A    between atoms: _165  and  _167
REMARK   51  A    between atoms: _167  and  _168
REMARK   52  A    between atoms: _167  and  _170
REMARK   53  A    between atoms: _170  and  _171
REMARK   54  A    between atoms: _171  and  _172
REMARK   55  A    between atoms: _175  and  _177
REMARK   56  A    between atoms: _177  and  _178
REMARK   57  A    between atoms: _177  and  _180
REMARK   58  A    between atoms: _180  and  _181
REMARK   59  A    between atoms: _186  and  _188
REMARK   60  A    between atoms: _188  and  _189
REMARK   61  A    between atoms: _188  and  _191
REMARK   62  A    between atoms: _191  and  _192
REMARK   63  A    between atoms: _192  and  _193
REMARK   64  A    between atoms: _196  and  _198
REMARK   65  A    between atoms: _198  and  _199
REMARK   66  A    between atoms: _198  and  _201
REMARK   67  A    between atoms: _201  and  _202
REMARK   68  A    between atoms: _205  and  _207
REMARK   69  A    between atoms: _207  and  _208
REMARK   70  A    between atoms: _207  and  _210
REMARK   71  A    between atoms: _210  and  _211
REMARK   72  A    between atoms: _212  and  ZN_432
REMARK   73  A    between atoms: _216  and  _218
REMARK   74  A    between atoms: _218  and  _219
REMARK   75  A    between atoms: _218  and  _221
REMARK   76  A    between atoms: _221  and  _222
REMARK   77  A    between atoms: _225  and  _227
REMARK   78  A    between atoms: _227  and  _228
REMARK   79  A    between atoms: _227  and  _230
REMARK   80  A    between atoms: _233  and  _235
REMARK   81  A    between atoms: _235  and  _236
REMARK   82  A    between atoms: _235  and  _238
REMARK   83  A    between atoms: _238  and  _239
REMARK   84  A    between atoms: _244  and  _246
REMARK   85  A    between atoms: _246  and  _247
REMARK   86  A    between atoms: _246  and  _249
REMARK   87  A    between atoms: _249  and  _250
REMARK   88  A    between atoms: _256  and  _258
REMARK   89  A    between atoms: _258  and  _259
REMARK   90  A    between atoms: _258  and  _261
REMARK   91  A    between atoms: _264  and  _266
REMARK   92  A    between atoms: _266  and  _267
REMARK   93  A    between atoms: _266  and  _269
REMARK   94  A    between atoms: _269  and  _270
REMARK   95  A    between atoms: _273  and  _275
REMARK   96  A    between atoms: _275  and  _276
REMARK   97  A    between atoms: _279  and  _281
REMARK   98  A    between atoms: _281  and  _282
REMARK   99  A    between atoms: _281  and  _284
REMARK  100  A    between atoms: _287  and  _289
REMARK  101  A    between atoms: _289  and  _290
REMARK  102  A    between atoms: _289  and  _292
REMARK  103  A    between atoms: _292  and  _293
REMARK  104  A    between atoms: _296  and  _298
REMARK  105  A    between atoms: _298  and  _299
REMARK  106  A    between atoms: _301  and  _303
REMARK  107  A    between atoms: _303  and  _304
REMARK  108  A    between atoms: _306  and  _308
REMARK  109  A    between atoms: _308  and  _309
REMARK  110  A    between atoms: _308  and  _311
REMARK  111  A    between atoms: _311  and  _312
REMARK  112  A    between atoms: _314  and  _316
REMARK  113  A    between atoms: _316  and  _317
REMARK  114  A    between atoms: _316  and  _319
REMARK  115  A    between atoms: _319  and  _320
REMARK  116  A    between atoms: _323  and  _325
REMARK  117  A    between atoms: _325  and  _326
REMARK  118  A    between atoms: _325  and  _328
REMARK  119  A    between atoms: _328  and  _329
REMARK  120  A    between atoms: _332  and  _334
REMARK  121  A    between atoms: _334  and  _335
REMARK  122  A    between atoms: _334  and  _337
REMARK  123  A    between atoms: _337  and  _338
REMARK  124  A    between atoms: _342  and  _343
REMARK  125  A    between atoms: _349  and  _350
REMARK  126  A    between atoms: _355  and  _357
REMARK  127  A    between atoms: _357  and  _358
REMARK  128  A    between atoms: _357  and  _360
REMARK  129  A    between atoms: _360  and  _361
REMARK  130  A    between atoms: _364  and  _366
REMARK  131  A    between atoms: _366  and  _367
REMARK  132  A    between atoms: _366  and  _369
REMARK  133  A    between atoms: _369  and  _370
REMARK  134  A    between atoms: _373  and  _375
REMARK  135  A    between atoms: _375  and  _376
REMARK  136  A    between atoms: _375  and  _378
REMARK  137  A    between atoms: _380  and  _382
REMARK  138  A    between atoms: _382  and  _383
REMARK  139  A    between atoms: _382  and  _385
REMARK  140  A    between atoms: _388  and  _390
REMARK  141  A    between atoms: _390  and  _391
REMARK  142  A    between atoms: _390  and  _393
REMARK  143  A    between atoms: _393  and  _394
REMARK  144  A    between atoms: _404  and  _406
REMARK  145  A    between atoms: _406  and  _407
REMARK  146  A    between atoms: _406  and  _409
REMARK  147  A    between atoms: _409  and  _410
REMARK  148  A    between atoms: _415  and  _417
REMARK  149  A    between atoms: _417  and  _418
REMARK  150  A    between atoms: _417  and  _420
REMARK  151  A    between atoms: _420  and  _421
REMARK  152  A    between atoms: _421  and  _422
REMARK  153  A    between atoms: _422  and  _423
REMARK                            x       y       z     vdW  Elec       q    Type
REMARK                         _______ _______ _______ _____ _____    ______ ____
ROOT
ATOM      1  CB  ASN A   1      19.023  -7.334  10.460  0.00  0.00    +0.110 C 
ENDROOT
BRANCH   1   2
ATOM      2  CG  ASN A   1      17.556  -7.483  10.341  0.00  0.00    +0.221 C 
ATOM      3  OD1 ASN A   1      16.919  -8.378  10.869  0.00  0.00    -0.275 OA
ATOM      4  ND2 ASN A   1      16.951  -6.585   9.585  0.00  0.00    -0.329 N 
ATOM      5 HD21 ASN A   1      15.923  -6.638   9.436  0.00  0.00    +0.145 HD
ATOM      6 HD22 ASN A   1      17.502  -5.825   9.138  0.00  0.00    +0.145 HD
ENDBRANCH   1   2
BRANCH   1   7
ATOM      7  CA  ASN A   1      19.564  -8.144  11.626  0.00  0.00    +0.142 C 
BRANCH   7   8
ATOM      8  N   ASN A   1      19.313  -9.581  11.458  0.00  0.00    -0.239 NA
ATOM      9  H   ASN A   1      18.387  -9.882  11.092  0.00  0.00    +0.142 HD
ENDBRANCH   7   8
BRANCH   7  10
ATOM     10  C   ASN A   1      19.030  -7.702  12.986  0.00  0.00    +0.225 C 
ATOM     11  O   ASN A   1      18.346  -6.643  13.066  0.00  0.00    -0.287 OA
ENDBRANCH   7  10
ENDBRANCH   1   7
TORSDOF 4
REMARK  Name = ../refined-set-2016/3s71/3s71_pocket.pdb
REMARK  153 active torsions:
REMARK  status: ('A' for Active; 'I' for Inactive)
REMARK    1  A    between atoms: _1  and  _5
REMARK    2  A    between atoms: _5  and  _6
REMARK    3  A    between atoms: _5  and  _8
REMARK    4  A    between atoms: _8  and  _9
REMARK    5  A    between atoms: _14  and  _16
REMARK    6  A    between atoms: _16  and  _17
REMARK    7  A    between atoms: _16  and  _19
REMARK    8  A    between atoms: _19  and  _20
REMARK    9  A    between atoms: _30  and  _32
REMARK   10  A    between atoms: _32  and  _33
REMARK   11  A    between atoms: _32  and  _35
REMARK   12  A    between atoms: _35  and  _36
REMARK   13  A    between atoms: _41  and  _42
REMARK   14  A    between atoms: _44  and  _46
REMARK   15  A    between atoms: _46  and  _47
REMARK   16  A    between atoms: _46  and  _49
REMARK   17  A    between atoms: _49  and  _50
REMARK   18  A    between atoms: _53  and  _54
REMARK   19  A    between atoms: _59  and  _61
REMARK   20  A    between atoms: _61  and  _62
REMARK   21  A    between atoms: _61  and  _64
REMARK   22  A    between atoms: _64  and  _65
REMARK   23  A    between atoms: _70  and  _72
REMARK   24  A    between atoms: _72  and  _73
REMARK   25  A    between atoms: _72  and  _75
REMARK   26  A    between atoms: _75  and  _76
REMARK   27  A    between atoms: _81  and  _83
REMARK   28  A    between atoms: _83  and  _84
REMARK   29  A    between atoms: _87  and  _89
REMARK   30  A    between atoms: _89  and  _90
REMARK   31  A    between atoms: _89  and  _92
REMARK   32  A    between atoms: _92  and  _93
REMARK   33  A    between atoms: _98  and  _100
REMARK   34  A    between atoms: _100  and  _101
REMARK   35  A    between atoms: _100  and  _103
REMARK   36  A    between atoms: _103  and  _104
REMARK   37  A    between atoms: _107  and  _109
REMARK   38  A    between atoms: _109  and  _110
REMARK   39  A    between atoms: _109  and  _112
REMARK   40  A    between atoms: _112  and  _113
REMARK   41  A    between atoms: _113  and  _114
REMARK   42  A    between atoms: _119  and  _121
REMARK   43  A    between atoms: _121  and  _122
REMARK   44  A    between atoms: _121  and  _124
REMARK   45  A    between atoms: _124  and  _125
REMARK   46  A    between atoms: _131  and  _133
REMARK   47  A    between atoms: _144  and  _147
REMARK   48  A    between atoms: _147  and  _148
REMARK   49  A    between atoms: _156  and  _157
REMARK   50  A    between atoms: _165  and  _167
REMARK   51  A    between atoms: _167  and  _168
REMARK   52  A    between atoms: _167  and  _170
REMARK   53  A    between atoms: _170  and  _171
REMARK   54  A    between atoms: _171  and  _172
REMARK   55  A    between atoms: _175  and  _177
REMARK   56  A    between atoms: _177  and  _178
REMARK   57  A    between atoms: _177  and  _180
REMARK   58  A    between atoms: _180  and  _181
REMARK   59  A    between atoms: _186  and  _188
REMARK   60  A    between atoms: _188  and  _189
REMARK   61  A    between atoms: _188  and  _191
REMARK   62  A    between atoms: _191  and  _192
REMARK   63  A    between atoms: _192  and  _193
REMARK   64  A    between atoms: _196  and  _198
REMARK   65  A    between atoms: _198  and  _199
REMARK   66  A    between atoms: _198  and  _201
REMARK   67  A    between atoms: _201  and  _202
REMARK   68  A    between atoms: _205  and  _207
REMARK   69  A    between atoms: _207  and  _208
REMARK   70  A    between atoms: _207  and  _210
REMARK   71  A    between atoms: _210  and  _211
REMARK   72  A    between atoms: _212  and  ZN_432
REMARK   73  A    between atoms: _216  and  _218
REMARK   74  A    between atoms: _218  and  _219
REMARK   75  A    between atoms: _218  and  _221
REMARK   76  A    between atoms: _221  and  _222
REMARK   77  A    between atoms: _225  and  _227
REMARK   78  A    between atoms: _227  and  _228
REMARK   79  A    between atoms: _227  and  _230
REMARK   80  A    between atoms: _233  and  _235
REMARK   81  A    between atoms: _235  and  _236
REMARK   82  A    between atoms: _235  and  _238
REMARK   83  A    between atoms: _238  and  _239
REMARK   84  A    between atoms: _244  and  _246
REMARK   85  A    between atoms: _246  and  _247
REMARK   86  A    between atoms: _246  and  _249
REMARK   87  A    between atoms: _249  and  _250
REMARK   88  A    between atoms: _256  and  _258
REMARK   89  A    between atoms: _258  and  _259
REMARK   90  A    between atoms: _258  and  _261
REMARK   91  A    between atoms: _264  and  _266
REMARK   92  A    between atoms: _266  and  _267
REMARK   93  A    between atoms: _266  and  _269
REMARK   94  A    between atoms: _269  and  _270
REMARK   95  A    between atoms: _273  and  _275
REMARK   96  A    between atoms: _275  and  _276
REMARK   97  A    between atoms: _279  and  _281
REMARK   98  A    between atoms: _281  and  _282
REMARK   99  A    between atoms: _281  and  _284
REMARK  100  A    between atoms: _287  and  _289
REMARK  101  A    between atoms: _289  and  _290
REMARK  102  A    between atoms: _289  and  _292
REMARK  103  A    between atoms: _292  and  _293
REMARK  104  A    between atoms: _296  and  _298
REMARK  105  A    between atoms: _298  and  _299
REMARK  106  A    between atoms: _301  and  _303
REMARK  107  A    between atoms: _303  and  _304
REMARK  108  A    between atoms: _306  and  _308
REMARK  109  A    between atoms: _308  and  _309
REMARK  110  A    between atoms: _308  and  _311
REMARK  111  A    between atoms: _311  and  _312
REMARK  112  A    between atoms: _314  and  _316
REMARK  113  A    between atoms: _316  and  _317
REMARK  114  A    between atoms: _316  and  _319
REMARK  115  A    between atoms: _319  and  _320
REMARK  116  A    between atoms: _323  and  _325
REMARK  117  A    between atoms: _325  and  _326
REMARK  118  A    between atoms: _325  and  _328
REMARK  119  A    between atoms: _328  and  _329
REMARK  120  A    between atoms: _332  and  _334
REMARK  121  A    between atoms: _334  and  _335
REMARK  122  A    between atoms: _334  and  _337
REMARK  123  A    between atoms: _337  and  _338
REMARK  124  A    between atoms: _342  and  _343
REMARK  125  A    between atoms: _349  and  _350
REMARK  126  A    between atoms: _355  and  _357
REMARK  127  A    between atoms: _357  and  _358
REMARK  128  A    between atoms: _357  and  _360
REMARK  129  A    between atoms: _360  and  _361
REMARK  130  A    between atoms: _364  and  _366
REMARK  131  A    between atoms: _366  and  _367
REMARK  132  A    between atoms: _366  and  _369
REMARK  133  A    between atoms: _369  and  _370
REMARK  134  A    between atoms: _373  and  _375
REMARK  135  A    between atoms: _375  and  _376
REMARK  136  A    between atoms: _375  and  _378
REMARK  137  A    between atoms: _380  and  _382
REMARK  138  A    between atoms: _382  and  _383
REMARK  139  A    between atoms: _382  and  _385
REMARK  140  A    between atoms: _388  and  _390
REMARK  141  A    between atoms: _390  and  _391
REMARK  142  A    between atoms: _390  and  _393
REMARK  143  A    between atoms: _393  and  _394
REMARK  144  A    between atoms: _404  and  _406
REMARK  145  A    between atoms: _406  and  _407
REMARK  146  A    between atoms: _406  and  _409
REMARK  147  A    between atoms: _409  and  _410
REMARK  148  A    between atoms: _415  and  _417
REMARK  149  A    between atoms: _417  and  _418
REMARK  150  A    between atoms: _417  and  _420
REMARK  151  A    between atoms: _420  and  _421
REMARK  152  A    between atoms: _421  and  _422
REMARK  153  A    between atoms: _422  and  _423
REMARK                            x       y       z     vdW  Elec       q    Type
REMARK                         _______ _______ _______ _____ _____    ______ ____
ROOT
ATOM      1  NE  ARG A   1      23.146  -3.560  21.153  0.00  0.00    -0.265 N 
ATOM      2  CZ  ARG A   1      23.387  -2.512  21.931  0.00  0.00    +0.342 C 
ATOM      3  NH2 ARG A   1      24.607  -2.283  22.423  0.00  0.00    -0.292 N 
ATOM      4 HH21 ARG A   1      24.776  -1.456  23.031  0.00  0.00    +0.255 HD
ATOM      5 HH22 ARG A   1      25.388  -2.931  22.198  0.00  0.00    +0.255 HD
ATOM      6  NH1 ARG A   1      22.408  -1.720  22.260  0.00  0.00    -0.292 N 
ATOM      7 HH11 ARG A   1      22.588  -0.896  22.869  0.00  0.00    +0.255 HD
ATOM      8 HH12 ARG A   1      21.446  -1.911  21.914  0.00  0.00    +0.255 HD
ATOM      9  HE  ARG A   1      23.935  -4.224  21.018  0.00  0.00    +0.259 HD
ENDROOT
BRANCH   1  10
ATOM     10  CD  ARG A   1      21.889  -3.890  20.458  0.00  0.00    +0.174 C 
BRANCH  10  11
ATOM     11  CG  ARG A   1      22.004  -5.271  19.884  0.00  0.00    +0.045 C 
BRANCH  11  12
ATOM     12  CB  ARG A   1      20.848  -5.601  18.912  0.00  0.00    +0.029 C 
BRANCH  12  13
ATOM     13  CA  ARG A   1      20.888  -7.017  18.381  0.00  0.00    +0.133 C 
BRANCH  13  14
ATOM     14  N   ARG A   1      19.864  -7.143  17.310  0.00  0.00    -0.239 NA
ATOM     15  H   ARG A   1      19.042  -6.506  17.321  0.00  0.00    +0.142 HD
ENDBRANCH  13  14
BRANCH  13  16
ATOM     16  C   ARG A   1      20.381  -7.936  19.538  0.00  0.00    +0.224 C 
ATOM     17  O   ARG A   1      19.177  -7.907  19.872  0.00  0.00    -0.287 OA
ENDBRANCH  13  16
ENDBRANCH  12  13
ENDBRANCH  11  12
ENDBRANCH  10  11
ENDBRANCH   1  10
TORSDOF 6
REMARK  Name = ../refined-set-2016/3s71/3s71_pocket.pdb
REMARK  153 active torsions:
REMARK  status: ('A' for Active; 'I' for Inactive)
REMARK    1  A    between atoms: _1  and  _5
REMARK    2  A    between atoms: _5  and  _6
REMARK    3  A    between atoms: _5  and  _8
REMARK    4  A    between atoms: _8  and  _9
REMARK    5  A    between atoms: _14  and  _16
REMARK    6  A    between atoms: _16  and  _17
REMARK    7  A    between atoms: _16  and  _19
REMARK    8  A    between atoms: _19  and  _20
REMARK    9  A    between atoms: _30  and  _32
REMARK   10  A    between atoms: _32  and  _33
REMARK   11  A    between atoms: _32  and  _35
REMARK   12  A    between atoms: _35  and  _36
REMARK   13  A    between atoms: _41  and  _42
REMARK   14  A    between atoms: _44  and  _46
REMARK   15  A    between atoms: _46  and  _47
REMARK   16  A    between atoms: _46  and  _49
REMARK   17  A    between atoms: _49  and  _50
REMARK   18  A    between atoms: _53  and  _54
REMARK   19  A    between atoms: _59  and  _61
REMARK   20  A    between atoms: _61  and  _62
REMARK   21  A    between atoms: _61  and  _64
REMARK   22  A    between atoms: _64  and  _65
REMARK   23  A    between atoms: _70  and  _72
REMARK   24  A    between atoms: _72  and  _73
REMARK   25  A    between atoms: _72  and  _75
REMARK   26  A    between atoms: _75  and  _76
REMARK   27  A    between atoms: _81  and  _83
REMARK   28  A    between atoms: _83  and  _84
REMARK   29  A    between atoms: _87  and  _89
REMARK   30  A    between atoms: _89  and  _90
REMARK   31  A    between atoms: _89  and  _92
REMARK   32  A    between atoms: _92  and  _93
REMARK   33  A    between atoms: _98  and  _100
REMARK   34  A    between atoms: _100  and  _101
REMARK   35  A    between atoms: _100  and  _103
REMARK   36  A    between atoms: _103  and  _104
REMARK   37  A    between atoms: _107  and  _109
REMARK   38  A    between atoms: _109  and  _110
REMARK   39  A    between atoms: _109  and  _112
REMARK   40  A    between atoms: _112  and  _113
REMARK   41  A    between atoms: _113  and  _114
REMARK   42  A    between atoms: _119  and  _121
REMARK   43  A    between atoms: _121  and  _122
REMARK   44  A    between atoms: _121  and  _124
REMARK   45  A    between atoms: _124  and  _125
REMARK   46  A    between atoms: _131  and  _133
REMARK   47  A    between atoms: _144  and  _147
REMARK   48  A    between atoms: _147  and  _148
REMARK   49  A    between atoms: _156  and  _157
REMARK   50  A    between atoms: _165  and  _167
REMARK   51  A    between atoms: _167  and  _168
REMARK   52  A    between atoms: _167  and  _170
REMARK   53  A    between atoms: _170  and  _171
REMARK   54  A    between atoms: _171  and  _172
REMARK   55  A    between atoms: _175  and  _177
REMARK   56  A    between atoms: _177  and  _178
REMARK   57  A    between atoms: _177  and  _180
REMARK   58  A    between atoms: _180  and  _181
REMARK   59  A    between atoms: _186  and  _188
REMARK   60  A    between atoms: _188  and  _189
REMARK   61  A    between atoms: _188  and  _191
REMARK   62  A    between atoms: _191  and  _192
REMARK   63  A    between atoms: _192  and  _193
REMARK   64  A    between atoms: _196  and  _198
REMARK   65  A    between atoms: _198  and  _199
REMARK   66  A    between atoms: _198  and  _201
REMARK   67  A    between atoms: _201  and  _202
REMARK   68  A    between atoms: _205  and  _207
REMARK   69  A    between atoms: _207  and  _208
REMARK   70  A    between atoms: _207  and  _210
REMARK   71  A    between atoms: _210  and  _211
REMARK   72  A    between atoms: _212  and  ZN_432
REMARK   73  A    between atoms: _216  and  _218
REMARK   74  A    between atoms: _218  and  _219
REMARK   75  A    between atoms: _218  and  _221
REMARK   76  A    between atoms: _221  and  _222
REMARK   77  A    between atoms: _225  and  _227
REMARK   78  A    between atoms: _227  and  _228
REMARK   79  A    between atoms: _227  and  _230
REMARK   80  A    between atoms: _233  and  _235
REMARK   81  A    between atoms: _235  and  _236
REMARK   82  A    between atoms: _235  and  _238
REMARK   83  A    between atoms: _238  and  _239
REMARK   84  A    between atoms: _244  and  _246
REMARK   85  A    between atoms: _246  and  _247
REMARK   86  A    between atoms: _246  and  _249
REMARK   87  A    between atoms: _249  and  _250
REMARK   88  A    between atoms: _256  and  _258
REMARK   89  A    between atoms: _258  and  _259
REMARK   90  A    between atoms: _258  and  _261
REMARK   91  A    between atoms: _264  and  _266
REMARK   92  A    between atoms: _266  and  _267
REMARK   93  A    between atoms: _266  and  _269
REMARK   94  A    between atoms: _269  and  _270
REMARK   95  A    between atoms: _273  and  _275
REMARK   96  A    between atoms: _275  and  _276
REMARK   97  A    between atoms: _279  and  _281
REMARK   98  A    between atoms: _281  and  _282
REMARK   99  A    between atoms: _281  and  _284
REMARK  100  A    between atoms: _287  and  _289
REMARK  101  A    between atoms: _289  and  _290
REMARK  102  A    between atoms: _289  and  _292
REMARK  103  A    between atoms: _292  and  _293
REMARK  104  A    between atoms: _296  and  _298
REMARK  105  A    between atoms: _298  and  _299
REMARK  106  A    between atoms: _301  and  _303
REMARK  107  A    between atoms: _303  and  _304
REMARK  108  A    between atoms: _306  and  _308
REMARK  109  A    between atoms: _308  and  _309
REMARK  110  A    between atoms: _308  and  _311
REMARK  111  A    between atoms: _311  and  _312
REMARK  112  A    between atoms: _314  and  _316
REMARK  113  A    between atoms: _316  and  _317
REMARK  114  A    between atoms: _316  and  _319
REMARK  115  A    between atoms: _319  and  _320
REMARK  116  A    between atoms: _323  and  _325
REMARK  117  A    between atoms: _325  and  _326
REMARK  118  A    between atoms: _325  and  _328
REMARK  119  A    between atoms: _328  and  _329
REMARK  120  A    between atoms: _332  and  _334
REMARK  121  A    between atoms: _334  and  _335
REMARK  122  A    between atoms: _334  and  _337
REMARK  123  A    between atoms: _337  and  _338
REMARK  124  A    between atoms: _342  and  _343
REMARK  125  A    between atoms: _349  and  _350
REMARK  126  A    between atoms: _355  and  _357
REMARK  127  A    between atoms: _357  and  _358
REMARK  128  A    between atoms: _357  and  _360
REMARK  129  A    between atoms: _360  and  _361
REMARK  130  A    between atoms: _364  and  _366
REMARK  131  A    between atoms: _366  and  _367
REMARK  132  A    between atoms: _366  and  _369
REMARK  133  A    between atoms: _369  and  _370
REMARK  134  A    between atoms: _373  and  _375
REMARK  135  A    between atoms: _375  and  _376
REMARK  136  A    between atoms: _375  and  _378
REMARK  137  A    between atoms: _380  and  _382
REMARK  138  A    between atoms: _382  and  _383
REMARK  139  A    between atoms: _382  and  _385
REMARK  140  A    between atoms: _388  and  _390
REMARK  141  A    between atoms: _390  and  _391
REMARK  142  A    between atoms: _390  and  _393
REMARK  143  A    between atoms: _393  and  _394
REMARK  144  A    between atoms: _404  and  _406
REMARK  145  A    between atoms: _406  and  _407
REMARK  146  A    between atoms: _406  and  _409
REMARK  147  A    between atoms: _409  and  _410
REMARK  148  A    between atoms: _415  and  _417
REMARK  149  A    between atoms: _417  and  _418
REMARK  150  A    between atoms: _417  and  _420
REMARK  151  A    between atoms: _420  and  _421
REMARK  152  A    between atoms: _421  and  _422
REMARK  153  A    between atoms: _422  and  _423
REMARK                            x       y       z     vdW  Elec       q    Type
REMARK                         _______ _______ _______ _____ _____    ______ ____
ROOT
ATOM      1  O   HOH     1      19.755  -4.001  15.850  0.00  0.00    +0.000 OA
ENDROOT
TORSDOF 0
REMARK  Name = ../refined-set-2016/3s71/3s71_pocket.pdb
REMARK  153 active torsions:
REMARK  status: ('A' for Active; 'I' for Inactive)
REMARK    1  A    between atoms: _1  and  _5
REMARK    2  A    between atoms: _5  and  _6
REMARK    3  A    between atoms: _5  and  _8
REMARK    4  A    between atoms: _8  and  _9
REMARK    5  A    between atoms: _14  and  _16
REMARK    6  A    between atoms: _16  and  _17
REMARK    7  A    between atoms: _16  and  _19
REMARK    8  A    between atoms: _19  and  _20
REMARK    9  A    between atoms: _30  and  _32
REMARK   10  A    between atoms: _32  and  _33
REMARK   11  A    between atoms: _32  and  _35
REMARK   12  A    between atoms: _35  and  _36
REMARK   13  A    between atoms: _41  and  _42
REMARK   14  A    between atoms: _44  and  _46
REMARK   15  A    between atoms: _46  and  _47
REMARK   16  A    between atoms: _46  and  _49
REMARK   17  A    between atoms: _49  and  _50
REMARK   18  A    between atoms: _53  and  _54
REMARK   19  A    between atoms: _59  and  _61
REMARK   20  A    between atoms: _61  and  _62
REMARK   21  A    between atoms: _61  and  _64
REMARK   22  A    between atoms: _64  and  _65
REMARK   23  A    between atoms: _70  and  _72
REMARK   24  A    between atoms: _72  and  _73
REMARK   25  A    between atoms: _72  and  _75
REMARK   26  A    between atoms: _75  and  _76
REMARK   27  A    between atoms: _81  and  _83
REMARK   28  A    between atoms: _83  and  _84
REMARK   29  A    between atoms: _87  and  _89
REMARK   30  A    between atoms: _89  and  _90
REMARK   31  A    between atoms: _89  and  _92
REMARK   32  A    between atoms: _92  and  _93
REMARK   33  A    between atoms: _98  and  _100
REMARK   34  A    between atoms: _100  and  _101
REMARK   35  A    between atoms: _100  and  _103
REMARK   36  A    between atoms: _103  and  _104
REMARK   37  A    between atoms: _107  and  _109
REMARK   38  A    between atoms: _109  and  _110
REMARK   39  A    between atoms: _109  and  _112
REMARK   40  A    between atoms: _112  and  _113
REMARK   41  A    between atoms: _113  and  _114
REMARK   42  A    between atoms: _119  and  _121
REMARK   43  A    between atoms: _121  and  _122
REMARK   44  A    between atoms: _121  and  _124
REMARK   45  A    between atoms: _124  and  _125
REMARK   46  A    between atoms: _131  and  _133
REMARK   47  A    between atoms: _144  and  _147
REMARK   48  A    between atoms: _147  and  _148
REMARK   49  A    between atoms: _156  and  _157
REMARK   50  A    between atoms: _165  and  _167
REMARK   51  A    between atoms: _167  and  _168
REMARK   52  A    between atoms: _167  and  _170
REMARK   53  A    between atoms: _170  and  _171
REMARK   54  A    between atoms: _171  and  _172
REMARK   55  A    between atoms: _175  and  _177
REMARK   56  A    between atoms: _177  and  _178
REMARK   57  A    between atoms: _177  and  _180
REMARK   58  A    between atoms: _180  and  _181
REMARK   59  A    between atoms: _186  and  _188
REMARK   60  A    between atoms: _188  and  _189
REMARK   61  A    between atoms: _188  and  _191
REMARK   62  A    between atoms: _191  and  _192
REMARK   63  A    between atoms: _192  and  _193
REMARK   64  A    between atoms: _196  and  _198
REMARK   65  A    between atoms: _198  and  _199
REMARK   66  A    between atoms: _198  and  _201
REMARK   67  A    between atoms: _201  and  _202
REMARK   68  A    between atoms: _205  and  _207
REMARK   69  A    between atoms: _207  and  _208
REMARK   70  A    between atoms: _207  and  _210
REMARK   71  A    between atoms: _210  and  _211
REMARK   72  A    between atoms: _212  and  ZN_432
REMARK   73  A    between atoms: _216  and  _218
REMARK   74  A    between atoms: _218  and  _219
REMARK   75  A    between atoms: _218  and  _221
REMARK   76  A    between atoms: _221  and  _222
REMARK   77  A    between atoms: _225  and  _227
REMARK   78  A    between atoms: _227  and  _228
REMARK   79  A    between atoms: _227  and  _230
REMARK   80  A    between atoms: _233  and  _235
REMARK   81  A    between atoms: _235  and  _236
REMARK   82  A    between atoms: _235  and  _238
REMARK   83  A    between atoms: _238  and  _239
REMARK   84  A    between atoms: _244  and  _246
REMARK   85  A    between atoms: _246  and  _247
REMARK   86  A    between atoms: _246  and  _249
REMARK   87  A    between atoms: _249  and  _250
REMARK   88  A    between atoms: _256  and  _258
REMARK   89  A    between atoms: _258  and  _259
REMARK   90  A    between atoms: _258  and  _261
REMARK   91  A    between atoms: _264  and  _266
REMARK   92  A    between atoms: _266  and  _267
REMARK   93  A    between atoms: _266  and  _269
REMARK   94  A    between atoms: _269  and  _270
REMARK   95  A    between atoms: _273  and  _275
REMARK   96  A    between atoms: _275  and  _276
REMARK   97  A    between atoms: _279  and  _281
REMARK   98  A    between atoms: _281  and  _282
REMARK   99  A    between atoms: _281  and  _284
REMARK  100  A    between atoms: _287  and  _289
REMARK  101  A    between atoms: _289  and  _290
REMARK  102  A    between atoms: _289  and  _292
REMARK  103  A    between atoms: _292  and  _293
REMARK  104  A    between atoms: _296  and  _298
REMARK  105  A    between atoms: _298  and  _299
REMARK  106  A    between atoms: _301  and  _303
REMARK  107  A    between atoms: _303  and  _304
REMARK  108  A    between atoms: _306  and  _308
REMARK  109  A    between atoms: _308  and  _309
REMARK  110  A    between atoms: _308  and  _311
REMARK  111  A    between atoms: _311  and  _312
REMARK  112  A    between atoms: _314  and  _316
REMARK  113  A    between atoms: _316  and  _317
REMARK  114  A    between atoms: _316  and  _319
REMARK  115  A    between atoms: _319  and  _320
REMARK  116  A    between atoms: _323  and  _325
REMARK  117  A    between atoms: _325  and  _326
REMARK  118  A    between atoms: _325  and  _328
REMARK  119  A    between atoms: _328  and  _329
REMARK  120  A    between atoms: _332  and  _334
REMARK  121  A    between atoms: _334  and  _335
REMARK  122  A    between atoms: _334  and  _337
REMARK  123  A    between atoms: _337  and  _338
REMARK  124  A    between atoms: _342  and  _343
REMARK  125  A    between atoms: _349  and  _350
REMARK  126  A    between atoms: _355  and  _357
REMARK  127  A    between atoms: _357  and  _358
REMARK  128  A    between atoms: _357  and  _360
REMARK  129  A    between atoms: _360  and  _361
REMARK  130  A    between atoms: _364  and  _366
REMARK  131  A    between atoms: _366  and  _367
REMARK  132  A    between atoms: _366  and  _369
REMARK  133  A    between atoms: _369  and  _370
REMARK  134  A    between atoms: _373  and  _375
REMARK  135  A    between atoms: _375  and  _376
REMARK  136  A    between atoms: _375  and  _378
REMARK  137  A    between atoms: _380  and  _382
REMARK  138  A    between atoms: _382  and  _383
REMARK  139  A    between atoms: _382  and  _385
REMARK  140  A    between atoms: _388  and  _390
REMARK  141  A    between atoms: _390  and  _391
REMARK  142  A    between atoms: _390  and  _393
REMARK  143  A    between atoms: _393  and  _394
REMARK  144  A    between atoms: _404  and  _406
REMARK  145  A    between atoms: _406  and  _407
REMARK  146  A    between atoms: _406  and  _409
REMARK  147  A    between atoms: _409  and  _410
REMARK  148  A    between atoms: _415  and  _417
REMARK  149  A    between atoms: _417  and  _418
REMARK  150  A    between atoms: _417  and  _420
REMARK  151  A    between atoms: _420  and  _421
REMARK  152  A    between atoms: _421  and  _422
REMARK  153  A    between atoms: _422  and  _423
REMARK                            x       y       z     vdW  Elec       q    Type
REMARK                         _______ _______ _______ _____ _____    ______ ____
ROOT
ATOM      1  O   HOH     1      17.081   0.474  13.780  0.00  0.00    +0.000 OA
ENDROOT
TORSDOF 0
REMARK  Name = ../refined-set-2016/3s71/3s71_pocket.pdb
REMARK  153 active torsions:
REMARK  status: ('A' for Active; 'I' for Inactive)
REMARK    1  A    between atoms: _1  and  _5
REMARK    2  A    between atoms: _5  and  _6
REMARK    3  A    between atoms: _5  and  _8
REMARK    4  A    between atoms: _8  and  _9
REMARK    5  A    between atoms: _14  and  _16
REMARK    6  A    between atoms: _16  and  _17
REMARK    7  A    between atoms: _16  and  _19
REMARK    8  A    between atoms: _19  and  _20
REMARK    9  A    between atoms: _30  and  _32
REMARK   10  A    between atoms: _32  and  _33
REMARK   11  A    between atoms: _32  and  _35
REMARK   12  A    between atoms: _35  and  _36
REMARK   13  A    between atoms: _41  and  _42
REMARK   14  A    between atoms: _44  and  _46
REMARK   15  A    between atoms: _46  and  _47
REMARK   16  A    between atoms: _46  and  _49
REMARK   17  A    between atoms: _49  and  _50
REMARK   18  A    between atoms: _53  and  _54
REMARK   19  A    between atoms: _59  and  _61
REMARK   20  A    between atoms: _61  and  _62
REMARK   21  A    between atoms: _61  and  _64
REMARK   22  A    between atoms: _64  and  _65
REMARK   23  A    between atoms: _70  and  _72
REMARK   24  A    between atoms: _72  and  _73
REMARK   25  A    between atoms: _72  and  _75
REMARK   26  A    between atoms: _75  and  _76
REMARK   27  A    between atoms: _81  and  _83
REMARK   28  A    between atoms: _83  and  _84
REMARK   29  A    between atoms: _87  and  _89
REMARK   30  A    between atoms: _89  and  _90
REMARK   31  A    between atoms: _89  and  _92
REMARK   32  A    between atoms: _92  and  _93
REMARK   33  A    between atoms: _98  and  _100
REMARK   34  A    between atoms: _100  and  _101
REMARK   35  A    between atoms: _100  and  _103
REMARK   36  A    between atoms: _103  and  _104
REMARK   37  A    between atoms: _107  and  _109
REMARK   38  A    between atoms: _109  and  _110
REMARK   39  A    between atoms: _109  and  _112
REMARK   40  A    between atoms: _112  and  _113
REMARK   41  A    between atoms: _113  and  _114
REMARK   42  A    between atoms: _119  and  _121
REMARK   43  A    between atoms: _121  and  _122
REMARK   44  A    between atoms: _121  and  _124
REMARK   45  A    between atoms: _124  and  _125
REMARK   46  A    between atoms: _131  and  _133
REMARK   47  A    between atoms: _144  and  _147
REMARK   48  A    between atoms: _147  and  _148
REMARK   49  A    between atoms: _156  and  _157
REMARK   50  A    between atoms: _165  and  _167
REMARK   51  A    between atoms: _167  and  _168
REMARK   52  A    between atoms: _167  and  _170
REMARK   53  A    between atoms: _170  and  _171
REMARK   54  A    between atoms: _171  and  _172
REMARK   55  A    between atoms: _175  and  _177
REMARK   56  A    between atoms: _177  and  _178
REMARK   57  A    between atoms: _177  and  _180
REMARK   58  A    between atoms: _180  and  _181
REMARK   59  A    between atoms: _186  and  _188
REMARK   60  A    between atoms: _188  and  _189
REMARK   61  A    between atoms: _188  and  _191
REMARK   62  A    between atoms: _191  and  _192
REMARK   63  A    between atoms: _192  and  _193
REMARK   64  A    between atoms: _196  and  _198
REMARK   65  A    between atoms: _198  and  _199
REMARK   66  A    between atoms: _198  and  _201
REMARK   67  A    between atoms: _201  and  _202
REMARK   68  A    between atoms: _205  and  _207
REMARK   69  A    between atoms: _207  and  _208
REMARK   70  A    between atoms: _207  and  _210
REMARK   71  A    between atoms: _210  and  _211
REMARK   72  A    between atoms: _212  and  ZN_432
REMARK   73  A    between atoms: _216  and  _218
REMARK   74  A    between atoms: _218  and  _219
REMARK   75  A    between atoms: _218  and  _221
REMARK   76  A    between atoms: _221  and  _222
REMARK   77  A    between atoms: _225  and  _227
REMARK   78  A    between atoms: _227  and  _228
REMARK   79  A    between atoms: _227  and  _230
REMARK   80  A    between atoms: _233  and  _235
REMARK   81  A    between atoms: _235  and  _236
REMARK   82  A    between atoms: _235  and  _238
REMARK   83  A    between atoms: _238  and  _239
REMARK   84  A    between atoms: _244  and  _246
REMARK   85  A    between atoms: _246  and  _247
REMARK   86  A    between atoms: _246  and  _249
REMARK   87  A    between atoms: _249  and  _250
REMARK   88  A    between atoms: _256  and  _258
REMARK   89  A    between atoms: _258  and  _259
REMARK   90  A    between atoms: _258  and  _261
REMARK   91  A    between atoms: _264  and  _266
REMARK   92  A    between atoms: _266  and  _267
REMARK   93  A    between atoms: _266  and  _269
REMARK   94  A    between atoms: _269  and  _270
REMARK   95  A    between atoms: _273  and  _275
REMARK   96  A    between atoms: _275  and  _276
REMARK   97  A    between atoms: _279  and  _281
REMARK   98  A    between atoms: _281  and  _282
REMARK   99  A    between atoms: _281  and  _284
REMARK  100  A    between atoms: _287  and  _289
REMARK  101  A    between atoms: _289  and  _290
REMARK  102  A    between atoms: _289  and  _292
REMARK  103  A    between atoms: _292  and  _293
REMARK  104  A    between atoms: _296  and  _298
REMARK  105  A    between atoms: _298  and  _299
REMARK  106  A    between atoms: _301  and  _303
REMARK  107  A    between atoms: _303  and  _304
REMARK  108  A    between atoms: _306  and  _308
REMARK  109  A    between atoms: _308  and  _309
REMARK  110  A    between atoms: _308  and  _311
REMARK  111  A    between atoms: _311  and  _312
REMARK  112  A    between atoms: _314  and  _316
REMARK  113  A    between atoms: _316  and  _317
REMARK  114  A    between atoms: _316  and  _319
REMARK  115  A    between atoms: _319  and  _320
REMARK  116  A    between atoms: _323  and  _325
REMARK  117  A    between atoms: _325  and  _326
REMARK  118  A    between atoms: _325  and  _328
REMARK  119  A    between atoms: _328  and  _329
REMARK  120  A    between atoms: _332  and  _334
REMARK  121  A    between atoms: _334  and  _335
REMARK  122  A    between atoms: _334  and  _337
REMARK  123  A    between atoms: _337  and  _338
REMARK  124  A    between atoms: _342  and  _343
REMARK  125  A    between atoms: _349  and  _350
REMARK  126  A    between atoms: _355  and  _357
REMARK  127  A    between atoms: _357  and  _358
REMARK  128  A    between atoms: _357  and  _360
REMARK  129  A    between atoms: _360  and  _361
REMARK  130  A    between atoms: _364  and  _366
REMARK  131  A    between atoms: _366  and  _367
REMARK  132  A    between atoms: _366  and  _369
REMARK  133  A    between atoms: _369  and  _370
REMARK  134  A    between atoms: _373  and  _375
REMARK  135  A    between atoms: _375  and  _376
REMARK  136  A    between atoms: _375  and  _378
REMARK  137  A    between atoms: _380  and  _382
REMARK  138  A    between atoms: _382  and  _383
REMARK  139  A    between atoms: _382  and  _385
REMARK  140  A    between atoms: _388  and  _390
REMARK  141  A    between atoms: _390  and  _391
REMARK  142  A    between atoms: _390  and  _393
REMARK  143  A    between atoms: _393  and  _394
REMARK  144  A    between atoms: _404  and  _406
REMARK  145  A    between atoms: _406  and  _407
REMARK  146  A    between atoms: _406  and  _409
REMARK  147  A    between atoms: _409  and  _410
REMARK  148  A    between atoms: _415  and  _417
REMARK  149  A    between atoms: _417  and  _418
REMARK  150  A    between atoms: _417  and  _420
REMARK  151  A    between atoms: _420  and  _421
REMARK  152  A    between atoms: _421  and  _422
REMARK  153  A    between atoms: _422  and  _423
REMARK                            x       y       z     vdW  Elec       q    Type
REMARK                         _______ _______ _______ _____ _____    ______ ____
ROOT
ATOM      1  O   HOH     1      15.686   2.288  12.077  0.00  0.00    +0.000 OA
ENDROOT
TORSDOF 0
REMARK  Name = ../refined-set-2016/3s71/3s71_pocket.pdb
REMARK  153 active torsions:
REMARK  status: ('A' for Active; 'I' for Inactive)
REMARK    1  A    between atoms: _1  and  _5
REMARK    2  A    between atoms: _5  and  _6
REMARK    3  A    between atoms: _5  and  _8
REMARK    4  A    between atoms: _8  and  _9
REMARK    5  A    between atoms: _14  and  _16
REMARK    6  A    between atoms: _16  and  _17
REMARK    7  A    between atoms: _16  and  _19
REMARK    8  A    between atoms: _19  and  _20
REMARK    9  A    between atoms: _30  and  _32
REMARK   10  A    between atoms: _32  and  _33
REMARK   11  A    between atoms: _32  and  _35
REMARK   12  A    between atoms: _35  and  _36
REMARK   13  A    between atoms: _41  and  _42
REMARK   14  A    between atoms: _44  and  _46
REMARK   15  A    between atoms: _46  and  _47
REMARK   16  A    between atoms: _46  and  _49
REMARK   17  A    between atoms: _49  and  _50
REMARK   18  A    between atoms: _53  and  _54
REMARK   19  A    between atoms: _59  and  _61
REMARK   20  A    between atoms: _61  and  _62
REMARK   21  A    between atoms: _61  and  _64
REMARK   22  A    between atoms: _64  and  _65
REMARK   23  A    between atoms: _70  and  _72
REMARK   24  A    between atoms: _72  and  _73
REMARK   25  A    between atoms: _72  and  _75
REMARK   26  A    between atoms: _75  and  _76
REMARK   27  A    between atoms: _81  and  _83
REMARK   28  A    between atoms: _83  and  _84
REMARK   29  A    between atoms: _87  and  _89
REMARK   30  A    between atoms: _89  and  _90
REMARK   31  A    between atoms: _89  and  _92
REMARK   32  A    between atoms: _92  and  _93
REMARK   33  A    between atoms: _98  and  _100
REMARK   34  A    between atoms: _100  and  _101
REMARK   35  A    between atoms: _100  and  _103
REMARK   36  A    between atoms: _103  and  _104
REMARK   37  A    between atoms: _107  and  _109
REMARK   38  A    between atoms: _109  and  _110
REMARK   39  A    between atoms: _109  and  _112
REMARK   40  A    between atoms: _112  and  _113
REMARK   41  A    between atoms: _113  and  _114
REMARK   42  A    between atoms: _119  and  _121
REMARK   43  A    between atoms: _121  and  _122
REMARK   44  A    between atoms: _121  and  _124
REMARK   45  A    between atoms: _124  and  _125
REMARK   46  A    between atoms: _131  and  _133
REMARK   47  A    between atoms: _144  and  _147
REMARK   48  A    between atoms: _147  and  _148
REMARK   49  A    between atoms: _156  and  _157
REMARK   50  A    between atoms: _165  and  _167
REMARK   51  A    between atoms: _167  and  _168
REMARK   52  A    between atoms: _167  and  _170
REMARK   53  A    between atoms: _170  and  _171
REMARK   54  A    between atoms: _171  and  _172
REMARK   55  A    between atoms: _175  and  _177
REMARK   56  A    between atoms: _177  and  _178
REMARK   57  A    between atoms: _177  and  _180
REMARK   58  A    between atoms: _180  and  _181
REMARK   59  A    between atoms: _186  and  _188
REMARK   60  A    between atoms: _188  and  _189
REMARK   61  A    between atoms: _188  and  _191
REMARK   62  A    between atoms: _191  and  _192
REMARK   63  A    between atoms: _192  and  _193
REMARK   64  A    between atoms: _196  and  _198
REMARK   65  A    between atoms: _198  and  _199
REMARK   66  A    between atoms: _198  and  _201
REMARK   67  A    between atoms: _201  and  _202
REMARK   68  A    between atoms: _205  and  _207
REMARK   69  A    between atoms: _207  and  _208
REMARK   70  A    between atoms: _207  and  _210
REMARK   71  A    between atoms: _210  and  _211
REMARK   72  A    between atoms: _212  and  ZN_432
REMARK   73  A    between atoms: _216  and  _218
REMARK   74  A    between atoms: _218  and  _219
REMARK   75  A    between atoms: _218  and  _221
REMARK   76  A    between atoms: _221  and  _222
REMARK   77  A    between atoms: _225  and  _227
REMARK   78  A    between atoms: _227  and  _228
REMARK   79  A    between atoms: _227  and  _230
REMARK   80  A    between atoms: _233  and  _235
REMARK   81  A    between atoms: _235  and  _236
REMARK   82  A    between atoms: _235  and  _238
REMARK   83  A    between atoms: _238  and  _239
REMARK   84  A    between atoms: _244  and  _246
REMARK   85  A    between atoms: _246  and  _247
REMARK   86  A    between atoms: _246  and  _249
REMARK   87  A    between atoms: _249  and  _250
REMARK   88  A    between atoms: _256  and  _258
REMARK   89  A    between atoms: _258  and  _259
REMARK   90  A    between atoms: _258  and  _261
REMARK   91  A    between atoms: _264  and  _266
REMARK   92  A    between atoms: _266  and  _267
REMARK   93  A    between atoms: _266  and  _269
REMARK   94  A    between atoms: _269  and  _270
REMARK   95  A    between atoms: _273  and  _275
REMARK   96  A    between atoms: _275  and  _276
REMARK   97  A    between atoms: _279  and  _281
REMARK   98  A    between atoms: _281  and  _282
REMARK   99  A    between atoms: _281  and  _284
REMARK  100  A    between atoms: _287  and  _289
REMARK  101  A    between atoms: _289  and  _290
REMARK  102  A    between atoms: _289  and  _292
REMARK  103  A    between atoms: _292  and  _293
REMARK  104  A    between atoms: _296  and  _298
REMARK  105  A    between atoms: _298  and  _299
REMARK  106  A    between atoms: _301  and  _303
REMARK  107  A    between atoms: _303  and  _304
REMARK  108  A    between atoms: _306  and  _308
REMARK  109  A    between atoms: _308  and  _309
REMARK  110  A    between atoms: _308  and  _311
REMARK  111  A    between atoms: _311  and  _312
REMARK  112  A    between atoms: _314  and  _316
REMARK  113  A    between atoms: _316  and  _317
REMARK  114  A    between atoms: _316  and  _319
REMARK  115  A    between atoms: _319  and  _320
REMARK  116  A    between atoms: _323  and  _325
REMARK  117  A    between atoms: _325  and  _326
REMARK  118  A    between atoms: _325  and  _328
REMARK  119  A    between atoms: _328  and  _329
REMARK  120  A    between atoms: _332  and  _334
REMARK  121  A    between atoms: _334  and  _335
REMARK  122  A    between atoms: _334  and  _337
REMARK  123  A    between atoms: _337  and  _338
REMARK  124  A    between atoms: _342  and  _343
REMARK  125  A    between atoms: _349  and  _350
REMARK  126  A    between atoms: _355  and  _357
REMARK  127  A    between atoms: _357  and  _358
REMARK  128  A    between atoms: _357  and  _360
REMARK  129  A    between atoms: _360  and  _361
REMARK  130  A    between atoms: _364  and  _366
REMARK  131  A    between atoms: _366  and  _367
REMARK  132  A    between atoms: _366  and  _369
REMARK  133  A    between atoms: _369  and  _370
REMARK  134  A    between atoms: _373  and  _375
REMARK  135  A    between atoms: _375  and  _376
REMARK  136  A    between atoms: _375  and  _378
REMARK  137  A    between atoms: _380  and  _382
REMARK  138  A    between atoms: _382  and  _383
REMARK  139  A    between atoms: _382  and  _385
REMARK  140  A    between atoms: _388  and  _390
REMARK  141  A    between atoms: _390  and  _391
REMARK  142  A    between atoms: _390  and  _393
REMARK  143  A    between atoms: _393  and  _394
REMARK  144  A    between atoms: _404  and  _406
REMARK  145  A    between atoms: _406  and  _407
REMARK  146  A    between atoms: _406  and  _409
REMARK  147  A    between atoms: _409  and  _410
REMARK  148  A    between atoms: _415  and  _417
REMARK  149  A    between atoms: _417  and  _418
REMARK  150  A    between atoms: _417  and  _420
REMARK  151  A    between atoms: _420  and  _421
REMARK  152  A    between atoms: _421  and  _422
REMARK  153  A    between atoms: _422  and  _423
REMARK                            x       y       z     vdW  Elec       q    Type
REMARK                         _______ _______ _______ _____ _____    ______ ____
ROOT
ATOM      1  O   HOH     1      18.445  -3.531  11.583  0.00  0.00    +0.000 OA
ENDROOT
TORSDOF 0
REMARK  Name = ../refined-set-2016/3s71/3s71_pocket.pdb
REMARK  153 active torsions:
REMARK  status: ('A' for Active; 'I' for Inactive)
REMARK    1  A    between atoms: _1  and  _5
REMARK    2  A    between atoms: _5  and  _6
REMARK    3  A    between atoms: _5  and  _8
REMARK    4  A    between atoms: _8  and  _9
REMARK    5  A    between atoms: _14  and  _16
REMARK    6  A    between atoms: _16  and  _17
REMARK    7  A    between atoms: _16  and  _19
REMARK    8  A    between atoms: _19  and  _20
REMARK    9  A    between atoms: _30  and  _32
REMARK   10  A    between atoms: _32  and  _33
REMARK   11  A    between atoms: _32  and  _35
REMARK   12  A    between atoms: _35  and  _36
REMARK   13  A    between atoms: _41  and  _42
REMARK   14  A    between atoms: _44  and  _46
REMARK   15  A    between atoms: _46  and  _47
REMARK   16  A    between atoms: _46  and  _49
REMARK   17  A    between atoms: _49  and  _50
REMARK   18  A    between atoms: _53  and  _54
REMARK   19  A    between atoms: _59  and  _61
REMARK   20  A    between atoms: _61  and  _62
REMARK   21  A    between atoms: _61  and  _64
REMARK   22  A    between atoms: _64  and  _65
REMARK   23  A    between atoms: _70  and  _72
REMARK   24  A    between atoms: _72  and  _73
REMARK   25  A    between atoms: _72  and  _75
REMARK   26  A    between atoms: _75  and  _76
REMARK   27  A    between atoms: _81  and  _83
REMARK   28  A    between atoms: _83  and  _84
REMARK   29  A    between atoms: _87  and  _89
REMARK   30  A    between atoms: _89  and  _90
REMARK   31  A    between atoms: _89  and  _92
REMARK   32  A    between atoms: _92  and  _93
REMARK   33  A    between atoms: _98  and  _100
REMARK   34  A    between atoms: _100  and  _101
REMARK   35  A    between atoms: _100  and  _103
REMARK   36  A    between atoms: _103  and  _104
REMARK   37  A    between atoms: _107  and  _109
REMARK   38  A    between atoms: _109  and  _110
REMARK   39  A    between atoms: _109  and  _112
REMARK   40  A    between atoms: _112  and  _113
REMARK   41  A    between atoms: _113  and  _114
REMARK   42  A    between atoms: _119  and  _121
REMARK   43  A    between atoms: _121  and  _122
REMARK   44  A    between atoms: _121  and  _124
REMARK   45  A    between atoms: _124  and  _125
REMARK   46  A    between atoms: _131  and  _133
REMARK   47  A    between atoms: _144  and  _147
REMARK   48  A    between atoms: _147  and  _148
REMARK   49  A    between atoms: _156  and  _157
REMARK   50  A    between atoms: _165  and  _167
REMARK   51  A    between atoms: _167  and  _168
REMARK   52  A    between atoms: _167  and  _170
REMARK   53  A    between atoms: _170  and  _171
REMARK   54  A    between atoms: _171  and  _172
REMARK   55  A    between atoms: _175  and  _177
REMARK   56  A    between atoms: _177  and  _178
REMARK   57  A    between atoms: _177  and  _180
REMARK   58  A    between atoms: _180  and  _181
REMARK   59  A    between atoms: _186  and  _188
REMARK   60  A    between atoms: _188  and  _189
REMARK   61  A    between atoms: _188  and  _191
REMARK   62  A    between atoms: _191  and  _192
REMARK   63  A    between atoms: _192  and  _193
REMARK   64  A    between atoms: _196  and  _198
REMARK   65  A    between atoms: _198  and  _199
REMARK   66  A    between atoms: _198  and  _201
REMARK   67  A    between atoms: _201  and  _202
REMARK   68  A    between atoms: _205  and  _207
REMARK   69  A    between atoms: _207  and  _208
REMARK   70  A    between atoms: _207  and  _210
REMARK   71  A    between atoms: _210  and  _211
REMARK   72  A    between atoms: _212  and  ZN_432
REMARK   73  A    between atoms: _216  and  _218
REMARK   74  A    between atoms: _218  and  _219
REMARK   75  A    between atoms: _218  and  _221
REMARK   76  A    between atoms: _221  and  _222
REMARK   77  A    between atoms: _225  and  _227
REMARK   78  A    between atoms: _227  and  _228
REMARK   79  A    between atoms: _227  and  _230
REMARK   80  A    between atoms: _233  and  _235
REMARK   81  A    between atoms: _235  and  _236
REMARK   82  A    between atoms: _235  and  _238
REMARK   83  A    between atoms: _238  and  _239
REMARK   84  A    between atoms: _244  and  _246
REMARK   85  A    between atoms: _246  and  _247
REMARK   86  A    between atoms: _246  and  _249
REMARK   87  A    between atoms: _249  and  _250
REMARK   88  A    between atoms: _256  and  _258
REMARK   89  A    between atoms: _258  and  _259
REMARK   90  A    between atoms: _258  and  _261
REMARK   91  A    between atoms: _264  and  _266
REMARK   92  A    between atoms: _266  and  _267
REMARK   93  A    between atoms: _266  and  _269
REMARK   94  A    between atoms: _269  and  _270
REMARK   95  A    between atoms: _273  and  _275
REMARK   96  A    between atoms: _275  and  _276
REMARK   97  A    between atoms: _279  and  _281
REMARK   98  A    between atoms: _281  and  _282
REMARK   99  A    between atoms: _281  and  _284
REMARK  100  A    between atoms: _287  and  _289
REMARK  101  A    between atoms: _289  and  _290
REMARK  102  A    between atoms: _289  and  _292
REMARK  103  A    between atoms: _292  and  _293
REMARK  104  A    between atoms: _296  and  _298
REMARK  105  A    between atoms: _298  and  _299
REMARK  106  A    between atoms: _301  and  _303
REMARK  107  A    between atoms: _303  and  _304
REMARK  108  A    between atoms: _306  and  _308
REMARK  109  A    between atoms: _308  and  _309
REMARK  110  A    between atoms: _308  and  _311
REMARK  111  A    between atoms: _311  and  _312
REMARK  112  A    between atoms: _314  and  _316
REMARK  113  A    between atoms: _316  and  _317
REMARK  114  A    between atoms: _316  and  _319
REMARK  115  A    between atoms: _319  and  _320
REMARK  116  A    between atoms: _323  and  _325
REMARK  117  A    between atoms: _325  and  _326
REMARK  118  A    between atoms: _325  and  _328
REMARK  119  A    between atoms: _328  and  _329
REMARK  120  A    between atoms: _332  and  _334
REMARK  121  A    between atoms: _334  and  _335
REMARK  122  A    between atoms: _334  and  _337
REMARK  123  A    between atoms: _337  and  _338
REMARK  124  A    between atoms: _342  and  _343
REMARK  125  A    between atoms: _349  and  _350
REMARK  126  A    between atoms: _355  and  _357
REMARK  127  A    between atoms: _357  and  _358
REMARK  128  A    between atoms: _357  and  _360
REMARK  129  A    between atoms: _360  and  _361
REMARK  130  A    between atoms: _364  and  _366
REMARK  131  A    between atoms: _366  and  _367
REMARK  132  A    between atoms: _366  and  _369
REMARK  133  A    between atoms: _369  and  _370
REMARK  134  A    between atoms: _373  and  _375
REMARK  135  A    between atoms: _375  and  _376
REMARK  136  A    between atoms: _375  and  _378
REMARK  137  A    between atoms: _380  and  _382
REMARK  138  A    between atoms: _382  and  _383
REMARK  139  A    between atoms: _382  and  _385
REMARK  140  A    between atoms: _388  and  _390
REMARK  141  A    between atoms: _390  and  _391
REMARK  142  A    between atoms: _390  and  _393
REMARK  143  A    between atoms: _393  and  _394
REMARK  144  A    between atoms: _404  and  _406
REMARK  145  A    between atoms: _406  and  _407
REMARK  146  A    between atoms: _406  and  _409
REMARK  147  A    between atoms: _409  and  _410
REMARK  148  A    between atoms: _415  and  _417
REMARK  149  A    between atoms: _417  and  _418
REMARK  150  A    between atoms: _417  and  _420
REMARK  151  A    between atoms: _420  and  _421
REMARK  152  A    between atoms: _421  and  _422
REMARK  153  A    between atoms: _422  and  _423
REMARK                            x       y       z     vdW  Elec       q    Type
REMARK                         _______ _______ _______ _____ _____    ______ ____
ROOT
ATOM      1  O   HOH     1      16.821  -1.325  11.720  0.00  0.00    +0.000 OA
ENDROOT
TORSDOF 0
REMARK  Name = ../refined-set-2016/3s71/3s71_pocket.pdb
REMARK  153 active torsions:
REMARK  status: ('A' for Active; 'I' for Inactive)
REMARK    1  A    between atoms: _1  and  _5
REMARK    2  A    between atoms: _5  and  _6
REMARK    3  A    between atoms: _5  and  _8
REMARK    4  A    between atoms: _8  and  _9
REMARK    5  A    between atoms: _14  and  _16
REMARK    6  A    between atoms: _16  and  _17
REMARK    7  A    between atoms: _16  and  _19
REMARK    8  A    between atoms: _19  and  _20
REMARK    9  A    between atoms: _30  and  _32
REMARK   10  A    between atoms: _32  and  _33
REMARK   11  A    between atoms: _32  and  _35
REMARK   12  A    between atoms: _35  and  _36
REMARK   13  A    between atoms: _41  and  _42
REMARK   14  A    between atoms: _44  and  _46
REMARK   15  A    between atoms: _46  and  _47
REMARK   16  A    between atoms: _46  and  _49
REMARK   17  A    between atoms: _49  and  _50
REMARK   18  A    between atoms: _53  and  _54
REMARK   19  A    between atoms: _59  and  _61
REMARK   20  A    between atoms: _61  and  _62
REMARK   21  A    between atoms: _61  and  _64
REMARK   22  A    between atoms: _64  and  _65
REMARK   23  A    between atoms: _70  and  _72
REMARK   24  A    between atoms: _72  and  _73
REMARK   25  A    between atoms: _72  and  _75
REMARK   26  A    between atoms: _75  and  _76
REMARK   27  A    between atoms: _81  and  _83
REMARK   28  A    between atoms: _83  and  _84
REMARK   29  A    between atoms: _87  and  _89
REMARK   30  A    between atoms: _89  and  _90
REMARK   31  A    between atoms: _89  and  _92
REMARK   32  A    between atoms: _92  and  _93
REMARK   33  A    between atoms: _98  and  _100
REMARK   34  A    between atoms: _100  and  _101
REMARK   35  A    between atoms: _100  and  _103
REMARK   36  A    between atoms: _103  and  _104
REMARK   37  A    between atoms: _107  and  _109
REMARK   38  A    between atoms: _109  and  _110
REMARK   39  A    between atoms: _109  and  _112
REMARK   40  A    between atoms: _112  and  _113
REMARK   41  A    between atoms: _113  and  _114
REMARK   42  A    between atoms: _119  and  _121
REMARK   43  A    between atoms: _121  and  _122
REMARK   44  A    between atoms: _121  and  _124
REMARK   45  A    between atoms: _124  and  _125
REMARK   46  A    between atoms: _131  and  _133
REMARK   47  A    between atoms: _144  and  _147
REMARK   48  A    between atoms: _147  and  _148
REMARK   49  A    between atoms: _156  and  _157
REMARK   50  A    between atoms: _165  and  _167
REMARK   51  A    between atoms: _167  and  _168
REMARK   52  A    between atoms: _167  and  _170
REMARK   53  A    between atoms: _170  and  _171
REMARK   54  A    between atoms: _171  and  _172
REMARK   55  A    between atoms: _175  and  _177
REMARK   56  A    between atoms: _177  and  _178
REMARK   57  A    between atoms: _177  and  _180
REMARK   58  A    between atoms: _180  and  _181
REMARK   59  A    between atoms: _186  and  _188
REMARK   60  A    between atoms: _188  and  _189
REMARK   61  A    between atoms: _188  and  _191
REMARK   62  A    between atoms: _191  and  _192
REMARK   63  A    between atoms: _192  and  _193
REMARK   64  A    between atoms: _196  and  _198
REMARK   65  A    between atoms: _198  and  _199
REMARK   66  A    between atoms: _198  and  _201
REMARK   67  A    between atoms: _201  and  _202
REMARK   68  A    between atoms: _205  and  _207
REMARK   69  A    between atoms: _207  and  _208
REMARK   70  A    between atoms: _207  and  _210
REMARK   71  A    between atoms: _210  and  _211
REMARK   72  A    between atoms: _212  and  ZN_432
REMARK   73  A    between atoms: _216  and  _218
REMARK   74  A    between atoms: _218  and  _219
REMARK   75  A    between atoms: _218  and  _221
REMARK   76  A    between atoms: _221  and  _222
REMARK   77  A    between atoms: _225  and  _227
REMARK   78  A    between atoms: _227  and  _228
REMARK   79  A    between atoms: _227  and  _230
REMARK   80  A    between atoms: _233  and  _235
REMARK   81  A    between atoms: _235  and  _236
REMARK   82  A    between atoms: _235  and  _238
REMARK   83  A    between atoms: _238  and  _239
REMARK   84  A    between atoms: _244  and  _246
REMARK   85  A    between atoms: _246  and  _247
REMARK   86  A    between atoms: _246  and  _249
REMARK   87  A    between atoms: _249  and  _250
REMARK   88  A    between atoms: _256  and  _258
REMARK   89  A    between atoms: _258  and  _259
REMARK   90  A    between atoms: _258  and  _261
REMARK   91  A    between atoms: _264  and  _266
REMARK   92  A    between atoms: _266  and  _267
REMARK   93  A    between atoms: _266  and  _269
REMARK   94  A    between atoms: _269  and  _270
REMARK   95  A    between atoms: _273  and  _275
REMARK   96  A    between atoms: _275  and  _276
REMARK   97  A    between atoms: _279  and  _281
REMARK   98  A    between atoms: _281  and  _282
REMARK   99  A    between atoms: _281  and  _284
REMARK  100  A    between atoms: _287  and  _289
REMARK  101  A    between atoms: _289  and  _290
REMARK  102  A    between atoms: _289  and  _292
REMARK  103  A    between atoms: _292  and  _293
REMARK  104  A    between atoms: _296  and  _298
REMARK  105  A    between atoms: _298  and  _299
REMARK  106  A    between atoms: _301  and  _303
REMARK  107  A    between atoms: _303  and  _304
REMARK  108  A    between atoms: _306  and  _308
REMARK  109  A    between atoms: _308  and  _309
REMARK  110  A    between atoms: _308  and  _311
REMARK  111  A    between atoms: _311  and  _312
REMARK  112  A    between atoms: _314  and  _316
REMARK  113  A    between atoms: _316  and  _317
REMARK  114  A    between atoms: _316  and  _319
REMARK  115  A    between atoms: _319  and  _320
REMARK  116  A    between atoms: _323  and  _325
REMARK  117  A    between atoms: _325  and  _326
REMARK  118  A    between atoms: _325  and  _328
REMARK  119  A    between atoms: _328  and  _329
REMARK  120  A    between atoms: _332  and  _334
REMARK  121  A    between atoms: _334  and  _335
REMARK  122  A    between atoms: _334  and  _337
REMARK  123  A    between atoms: _337  and  _338
REMARK  124  A    between atoms: _342  and  _343
REMARK  125  A    between atoms: _349  and  _350
REMARK  126  A    between atoms: _355  and  _357
REMARK  127  A    between atoms: _357  and  _358
REMARK  128  A    between atoms: _357  and  _360
REMARK  129  A    between atoms: _360  and  _361
REMARK  130  A    between atoms: _364  and  _366
REMARK  131  A    between atoms: _366  and  _367
REMARK  132  A    between atoms: _366  and  _369
REMARK  133  A    between atoms: _369  and  _370
REMARK  134  A    between atoms: _373  and  _375
REMARK  135  A    between atoms: _375  and  _376
REMARK  136  A    between atoms: _375  and  _378
REMARK  137  A    between atoms: _380  and  _382
REMARK  138  A    between atoms: _382  and  _383
REMARK  139  A    between atoms: _382  and  _385
REMARK  140  A    between atoms: _388  and  _390
REMARK  141  A    between atoms: _390  and  _391
REMARK  142  A    between atoms: _390  and  _393
REMARK  143  A    between atoms: _393  and  _394
REMARK  144  A    between atoms: _404  and  _406
REMARK  145  A    between atoms: _406  and  _407
REMARK  146  A    between atoms: _406  and  _409
REMARK  147  A    between atoms: _409  and  _410
REMARK  148  A    between atoms: _415  and  _417
REMARK  149  A    between atoms: _417  and  _418
REMARK  150  A    between atoms: _417  and  _420
REMARK  151  A    between atoms: _420  and  _421
REMARK  152  A    between atoms: _421  and  _422
REMARK  153  A    between atoms: _422  and  _423
REMARK                            x       y       z     vdW  Elec       q    Type
REMARK                         _______ _______ _______ _____ _____    ______ ____
ROOT
ATOM      1  O   HOH     1      20.699   2.922  12.388  0.00  0.00    +0.000 OA
ENDROOT
TORSDOF 0
REMARK  Name = ../refined-set-2016/3s71/3s71_pocket.pdb
REMARK  153 active torsions:
REMARK  status: ('A' for Active; 'I' for Inactive)
REMARK    1  A    between atoms: _1  and  _5
REMARK    2  A    between atoms: _5  and  _6
REMARK    3  A    between atoms: _5  and  _8
REMARK    4  A    between atoms: _8  and  _9
REMARK    5  A    between atoms: _14  and  _16
REMARK    6  A    between atoms: _16  and  _17
REMARK    7  A    between atoms: _16  and  _19
REMARK    8  A    between atoms: _19  and  _20
REMARK    9  A    between atoms: _30  and  _32
REMARK   10  A    between atoms: _32  and  _33
REMARK   11  A    between atoms: _32  and  _35
REMARK   12  A    between atoms: _35  and  _36
REMARK   13  A    between atoms: _41  and  _42
REMARK   14  A    between atoms: _44  and  _46
REMARK   15  A    between atoms: _46  and  _47
REMARK   16  A    between atoms: _46  and  _49
REMARK   17  A    between atoms: _49  and  _50
REMARK   18  A    between atoms: _53  and  _54
REMARK   19  A    between atoms: _59  and  _61
REMARK   20  A    between atoms: _61  and  _62
REMARK   21  A    between atoms: _61  and  _64
REMARK   22  A    between atoms: _64  and  _65
REMARK   23  A    between atoms: _70  and  _72
REMARK   24  A    between atoms: _72  and  _73
REMARK   25  A    between atoms: _72  and  _75
REMARK   26  A    between atoms: _75  and  _76
REMARK   27  A    between atoms: _81  and  _83
REMARK   28  A    between atoms: _83  and  _84
REMARK   29  A    between atoms: _87  and  _89
REMARK   30  A    between atoms: _89  and  _90
REMARK   31  A    between atoms: _89  and  _92
REMARK   32  A    between atoms: _92  and  _93
REMARK   33  A    between atoms: _98  and  _100
REMARK   34  A    between atoms: _100  and  _101
REMARK   35  A    between atoms: _100  and  _103
REMARK   36  A    between atoms: _103  and  _104
REMARK   37  A    between atoms: _107  and  _109
REMARK   38  A    between atoms: _109  and  _110
REMARK   39  A    between atoms: _109  and  _112
REMARK   40  A    between atoms: _112  and  _113
REMARK   41  A    between atoms: _113  and  _114
REMARK   42  A    between atoms: _119  and  _121
REMARK   43  A    between atoms: _121  and  _122
REMARK   44  A    between atoms: _121  and  _124
REMARK   45  A    between atoms: _124  and  _125
REMARK   46  A    between atoms: _131  and  _133
REMARK   47  A    between atoms: _144  and  _147
REMARK   48  A    between atoms: _147  and  _148
REMARK   49  A    between atoms: _156  and  _157
REMARK   50  A    between atoms: _165  and  _167
REMARK   51  A    between atoms: _167  and  _168
REMARK   52  A    between atoms: _167  and  _170
REMARK   53  A    between atoms: _170  and  _171
REMARK   54  A    between atoms: _171  and  _172
REMARK   55  A    between atoms: _175  and  _177
REMARK   56  A    between atoms: _177  and  _178
REMARK   57  A    between atoms: _177  and  _180
REMARK   58  A    between atoms: _180  and  _181
REMARK   59  A    between atoms: _186  and  _188
REMARK   60  A    between atoms: _188  and  _189
REMARK   61  A    between atoms: _188  and  _191
REMARK   62  A    between atoms: _191  and  _192
REMARK   63  A    between atoms: _192  and  _193
REMARK   64  A    between atoms: _196  and  _198
REMARK   65  A    between atoms: _198  and  _199
REMARK   66  A    between atoms: _198  and  _201
REMARK   67  A    between atoms: _201  and  _202
REMARK   68  A    between atoms: _205  and  _207
REMARK   69  A    between atoms: _207  and  _208
REMARK   70  A    between atoms: _207  and  _210
REMARK   71  A    between atoms: _210  and  _211
REMARK   72  A    between atoms: _212  and  ZN_432
REMARK   73  A    between atoms: _216  and  _218
REMARK   74  A    between atoms: _218  and  _219
REMARK   75  A    between atoms: _218  and  _221
REMARK   76  A    between atoms: _221  and  _222
REMARK   77  A    between atoms: _225  and  _227
REMARK   78  A    between atoms: _227  and  _228
REMARK   79  A    between atoms: _227  and  _230
REMARK   80  A    between atoms: _233  and  _235
REMARK   81  A    between atoms: _235  and  _236
REMARK   82  A    between atoms: _235  and  _238
REMARK   83  A    between atoms: _238  and  _239
REMARK   84  A    between atoms: _244  and  _246
REMARK   85  A    between atoms: _246  and  _247
REMARK   86  A    between atoms: _246  and  _249
REMARK   87  A    between atoms: _249  and  _250
REMARK   88  A    between atoms: _256  and  _258
REMARK   89  A    between atoms: _258  and  _259
REMARK   90  A    between atoms: _258  and  _261
REMARK   91  A    between atoms: _264  and  _266
REMARK   92  A    between atoms: _266  and  _267
REMARK   93  A    between atoms: _266  and  _269
REMARK   94  A    between atoms: _269  and  _270
REMARK   95  A    between atoms: _273  and  _275
REMARK   96  A    between atoms: _275  and  _276
REMARK   97  A    between atoms: _279  and  _281
REMARK   98  A    between atoms: _281  and  _282
REMARK   99  A    between atoms: _281  and  _284
REMARK  100  A    between atoms: _287  and  _289
REMARK  101  A    between atoms: _289  and  _290
REMARK  102  A    between atoms: _289  and  _292
REMARK  103  A    between atoms: _292  and  _293
REMARK  104  A    between atoms: _296  and  _298
REMARK  105  A    between atoms: _298  and  _299
REMARK  106  A    between atoms: _301  and  _303
REMARK  107  A    between atoms: _303  and  _304
REMARK  108  A    between atoms: _306  and  _308
REMARK  109  A    between atoms: _308  and  _309
REMARK  110  A    between atoms: _308  and  _311
REMARK  111  A    between atoms: _311  and  _312
REMARK  112  A    between atoms: _314  and  _316
REMARK  113  A    between atoms: _316  and  _317
REMARK  114  A    between atoms: _316  and  _319
REMARK  115  A    between atoms: _319  and  _320
REMARK  116  A    between atoms: _323  and  _325
REMARK  117  A    between atoms: _325  and  _326
REMARK  118  A    between atoms: _325  and  _328
REMARK  119  A    between atoms: _328  and  _329
REMARK  120  A    between atoms: _332  and  _334
REMARK  121  A    between atoms: _334  and  _335
REMARK  122  A    between atoms: _334  and  _337
REMARK  123  A    between atoms: _337  and  _338
REMARK  124  A    between atoms: _342  and  _343
REMARK  125  A    between atoms: _349  and  _350
REMARK  126  A    between atoms: _355  and  _357
REMARK  127  A    between atoms: _357  and  _358
REMARK  128  A    between atoms: _357  and  _360
REMARK  129  A    between atoms: _360  and  _361
REMARK  130  A    between atoms: _364  and  _366
REMARK  131  A    between atoms: _366  and  _367
REMARK  132  A    between atoms: _366  and  _369
REMARK  133  A    between atoms: _369  and  _370
REMARK  134  A    between atoms: _373  and  _375
REMARK  135  A    between atoms: _375  and  _376
REMARK  136  A    between atoms: _375  and  _378
REMARK  137  A    between atoms: _380  and  _382
REMARK  138  A    between atoms: _382  and  _383
REMARK  139  A    between atoms: _382  and  _385
REMARK  140  A    between atoms: _388  and  _390
REMARK  141  A    between atoms: _390  and  _391
REMARK  142  A    between atoms: _390  and  _393
REMARK  143  A    between atoms: _393  and  _394
REMARK  144  A    between atoms: _404  and  _406
REMARK  145  A    between atoms: _406  and  _407
REMARK  146  A    between atoms: _406  and  _409
REMARK  147  A    between atoms: _409  and  _410
REMARK  148  A    between atoms: _415  and  _417
REMARK  149  A    between atoms: _417  and  _418
REMARK  150  A    between atoms: _417  and  _420
REMARK  151  A    between atoms: _420  and  _421
REMARK  152  A    between atoms: _421  and  _422
REMARK  153  A    between atoms: _422  and  _423
REMARK                            x       y       z     vdW  Elec       q    Type
REMARK                         _______ _______ _______ _____ _____    ______ ____
ROOT
ATOM      1  O   HOH     1      14.596   6.573  10.668  0.00  0.00    +0.000 OA
ENDROOT
TORSDOF 0
REMARK  Name = ../refined-set-2016/3s71/3s71_pocket.pdb
REMARK  153 active torsions:
REMARK  status: ('A' for Active; 'I' for Inactive)
REMARK    1  A    between atoms: _1  and  _5
REMARK    2  A    between atoms: _5  and  _6
REMARK    3  A    between atoms: _5  and  _8
REMARK    4  A    between atoms: _8  and  _9
REMARK    5  A    between atoms: _14  and  _16
REMARK    6  A    between atoms: _16  and  _17
REMARK    7  A    between atoms: _16  and  _19
REMARK    8  A    between atoms: _19  and  _20
REMARK    9  A    between atoms: _30  and  _32
REMARK   10  A    between atoms: _32  and  _33
REMARK   11  A    between atoms: _32  and  _35
REMARK   12  A    between atoms: _35  and  _36
REMARK   13  A    between atoms: _41  and  _42
REMARK   14  A    between atoms: _44  and  _46
REMARK   15  A    between atoms: _46  and  _47
REMARK   16  A    between atoms: _46  and  _49
REMARK   17  A    between atoms: _49  and  _50
REMARK   18  A    between atoms: _53  and  _54
REMARK   19  A    between atoms: _59  and  _61
REMARK   20  A    between atoms: _61  and  _62
REMARK   21  A    between atoms: _61  and  _64
REMARK   22  A    between atoms: _64  and  _65
REMARK   23  A    between atoms: _70  and  _72
REMARK   24  A    between atoms: _72  and  _73
REMARK   25  A    between atoms: _72  and  _75
REMARK   26  A    between atoms: _75  and  _76
REMARK   27  A    between atoms: _81  and  _83
REMARK   28  A    between atoms: _83  and  _84
REMARK   29  A    between atoms: _87  and  _89
REMARK   30  A    between atoms: _89  and  _90
REMARK   31  A    between atoms: _89  and  _92
REMARK   32  A    between atoms: _92  and  _93
REMARK   33  A    between atoms: _98  and  _100
REMARK   34  A    between atoms: _100  and  _101
REMARK   35  A    between atoms: _100  and  _103
REMARK   36  A    between atoms: _103  and  _104
REMARK   37  A    between atoms: _107  and  _109
REMARK   38  A    between atoms: _109  and  _110
REMARK   39  A    between atoms: _109  and  _112
REMARK   40  A    between atoms: _112  and  _113
REMARK   41  A    between atoms: _113  and  _114
REMARK   42  A    between atoms: _119  and  _121
REMARK   43  A    between atoms: _121  and  _122
REMARK   44  A    between atoms: _121  and  _124
REMARK   45  A    between atoms: _124  and  _125
REMARK   46  A    between atoms: _131  and  _133
REMARK   47  A    between atoms: _144  and  _147
REMARK   48  A    between atoms: _147  and  _148
REMARK   49  A    between atoms: _156  and  _157
REMARK   50  A    between atoms: _165  and  _167
REMARK   51  A    between atoms: _167  and  _168
REMARK   52  A    between atoms: _167  and  _170
REMARK   53  A    between atoms: _170  and  _171
REMARK   54  A    between atoms: _171  and  _172
REMARK   55  A    between atoms: _175  and  _177
REMARK   56  A    between atoms: _177  and  _178
REMARK   57  A    between atoms: _177  and  _180
REMARK   58  A    between atoms: _180  and  _181
REMARK   59  A    between atoms: _186  and  _188
REMARK   60  A    between atoms: _188  and  _189
REMARK   61  A    between atoms: _188  and  _191
REMARK   62  A    between atoms: _191  and  _192
REMARK   63  A    between atoms: _192  and  _193
REMARK   64  A    between atoms: _196  and  _198
REMARK   65  A    between atoms: _198  and  _199
REMARK   66  A    between atoms: _198  and  _201
REMARK   67  A    between atoms: _201  and  _202
REMARK   68  A    between atoms: _205  and  _207
REMARK   69  A    between atoms: _207  and  _208
REMARK   70  A    between atoms: _207  and  _210
REMARK   71  A    between atoms: _210  and  _211
REMARK   72  A    between atoms: _212  and  ZN_432
REMARK   73  A    between atoms: _216  and  _218
REMARK   74  A    between atoms: _218  and  _219
REMARK   75  A    between atoms: _218  and  _221
REMARK   76  A    between atoms: _221  and  _222
REMARK   77  A    between atoms: _225  and  _227
REMARK   78  A    between atoms: _227  and  _228
REMARK   79  A    between atoms: _227  and  _230
REMARK   80  A    between atoms: _233  and  _235
REMARK   81  A    between atoms: _235  and  _236
REMARK   82  A    between atoms: _235  and  _238
REMARK   83  A    between atoms: _238  and  _239
REMARK   84  A    between atoms: _244  and  _246
REMARK   85  A    between atoms: _246  and  _247
REMARK   86  A    between atoms: _246  and  _249
REMARK   87  A    between atoms: _249  and  _250
REMARK   88  A    between atoms: _256  and  _258
REMARK   89  A    between atoms: _258  and  _259
REMARK   90  A    between atoms: _258  and  _261
REMARK   91  A    between atoms: _264  and  _266
REMARK   92  A    between atoms: _266  and  _267
REMARK   93  A    between atoms: _266  and  _269
REMARK   94  A    between atoms: _269  and  _270
REMARK   95  A    between atoms: _273  and  _275
REMARK   96  A    between atoms: _275  and  _276
REMARK   97  A    between atoms: _279  and  _281
REMARK   98  A    between atoms: _281  and  _282
REMARK   99  A    between atoms: _281  and  _284
REMARK  100  A    between atoms: _287  and  _289
REMARK  101  A    between atoms: _289  and  _290
REMARK  102  A    between atoms: _289  and  _292
REMARK  103  A    between atoms: _292  and  _293
REMARK  104  A    between atoms: _296  and  _298
REMARK  105  A    between atoms: _298  and  _299
REMARK  106  A    between atoms: _301  and  _303
REMARK  107  A    between atoms: _303  and  _304
REMARK  108  A    between atoms: _306  and  _308
REMARK  109  A    between atoms: _308  and  _309
REMARK  110  A    between atoms: _308  and  _311
REMARK  111  A    between atoms: _311  and  _312
REMARK  112  A    between atoms: _314  and  _316
REMARK  113  A    between atoms: _316  and  _317
REMARK  114  A    between atoms: _316  and  _319
REMARK  115  A    between atoms: _319  and  _320
REMARK  116  A    between atoms: _323  and  _325
REMARK  117  A    between atoms: _325  and  _326
REMARK  118  A    between atoms: _325  and  _328
REMARK  119  A    between atoms: _328  and  _329
REMARK  120  A    between atoms: _332  and  _334
REMARK  121  A    between atoms: _334  and  _335
REMARK  122  A    between atoms: _334  and  _337
REMARK  123  A    between atoms: _337  and  _338
REMARK  124  A    between atoms: _342  and  _343
REMARK  125  A    between atoms: _349  and  _350
REMARK  126  A    between atoms: _355  and  _357
REMARK  127  A    between atoms: _357  and  _358
REMARK  128  A    between atoms: _357  and  _360
REMARK  129  A    between atoms: _360  and  _361
REMARK  130  A    between atoms: _364  and  _366
REMARK  131  A    between atoms: _366  and  _367
REMARK  132  A    between atoms: _366  and  _369
REMARK  133  A    between atoms: _369  and  _370
REMARK  134  A    between atoms: _373  and  _375
REMARK  135  A    between atoms: _375  and  _376
REMARK  136  A    between atoms: _375  and  _378
REMARK  137  A    between atoms: _380  and  _382
REMARK  138  A    between atoms: _382  and  _383
REMARK  139  A    between atoms: _382  and  _385
REMARK  140  A    between atoms: _388  and  _390
REMARK  141  A    between atoms: _390  and  _391
REMARK  142  A    between atoms: _390  and  _393
REMARK  143  A    between atoms: _393  and  _394
REMARK  144  A    between atoms: _404  and  _406
REMARK  145  A    between atoms: _406  and  _407
REMARK  146  A    between atoms: _406  and  _409
REMARK  147  A    between atoms: _409  and  _410
REMARK  148  A    between atoms: _415  and  _417
REMARK  149  A    between atoms: _417  and  _418
REMARK  150  A    between atoms: _417  and  _420
REMARK  151  A    between atoms: _420  and  _421
REMARK  152  A    between atoms: _421  and  _422
REMARK  153  A    between atoms: _422  and  _423
REMARK                            x       y       z     vdW  Elec       q    Type
REMARK                         _______ _______ _______ _____ _____    ______ ____
ROOT
ATOM      1  O   HOH     1      18.034   3.329  11.105  0.00  0.00    +0.000 OA
ENDROOT
TORSDOF 0
REMARK  Name = ../refined-set-2016/3s71/3s71_pocket.pdb
REMARK  153 active torsions:
REMARK  status: ('A' for Active; 'I' for Inactive)
REMARK    1  A    between atoms: _1  and  _5
REMARK    2  A    between atoms: _5  and  _6
REMARK    3  A    between atoms: _5  and  _8
REMARK    4  A    between atoms: _8  and  _9
REMARK    5  A    between atoms: _14  and  _16
REMARK    6  A    between atoms: _16  and  _17
REMARK    7  A    between atoms: _16  and  _19
REMARK    8  A    between atoms: _19  and  _20
REMARK    9  A    between atoms: _30  and  _32
REMARK   10  A    between atoms: _32  and  _33
REMARK   11  A    between atoms: _32  and  _35
REMARK   12  A    between atoms: _35  and  _36
REMARK   13  A    between atoms: _41  and  _42
REMARK   14  A    between atoms: _44  and  _46
REMARK   15  A    between atoms: _46  and  _47
REMARK   16  A    between atoms: _46  and  _49
REMARK   17  A    between atoms: _49  and  _50
REMARK   18  A    between atoms: _53  and  _54
REMARK   19  A    between atoms: _59  and  _61
REMARK   20  A    between atoms: _61  and  _62
REMARK   21  A    between atoms: _61  and  _64
REMARK   22  A    between atoms: _64  and  _65
REMARK   23  A    between atoms: _70  and  _72
REMARK   24  A    between atoms: _72  and  _73
REMARK   25  A    between atoms: _72  and  _75
REMARK   26  A    between atoms: _75  and  _76
REMARK   27  A    between atoms: _81  and  _83
REMARK   28  A    between atoms: _83  and  _84
REMARK   29  A    between atoms: _87  and  _89
REMARK   30  A    between atoms: _89  and  _90
REMARK   31  A    between atoms: _89  and  _92
REMARK   32  A    between atoms: _92  and  _93
REMARK   33  A    between atoms: _98  and  _100
REMARK   34  A    between atoms: _100  and  _101
REMARK   35  A    between atoms: _100  and  _103
REMARK   36  A    between atoms: _103  and  _104
REMARK   37  A    between atoms: _107  and  _109
REMARK   38  A    between atoms: _109  and  _110
REMARK   39  A    between atoms: _109  and  _112
REMARK   40  A    between atoms: _112  and  _113
REMARK   41  A    between atoms: _113  and  _114
REMARK   42  A    between atoms: _119  and  _121
REMARK   43  A    between atoms: _121  and  _122
REMARK   44  A    between atoms: _121  and  _124
REMARK   45  A    between atoms: _124  and  _125
REMARK   46  A    between atoms: _131  and  _133
REMARK   47  A    between atoms: _144  and  _147
REMARK   48  A    between atoms: _147  and  _148
REMARK   49  A    between atoms: _156  and  _157
REMARK   50  A    between atoms: _165  and  _167
REMARK   51  A    between atoms: _167  and  _168
REMARK   52  A    between atoms: _167  and  _170
REMARK   53  A    between atoms: _170  and  _171
REMARK   54  A    between atoms: _171  and  _172
REMARK   55  A    between atoms: _175  and  _177
REMARK   56  A    between atoms: _177  and  _178
REMARK   57  A    between atoms: _177  and  _180
REMARK   58  A    between atoms: _180  and  _181
REMARK   59  A    between atoms: _186  and  _188
REMARK   60  A    between atoms: _188  and  _189
REMARK   61  A    between atoms: _188  and  _191
REMARK   62  A    between atoms: _191  and  _192
REMARK   63  A    between atoms: _192  and  _193
REMARK   64  A    between atoms: _196  and  _198
REMARK   65  A    between atoms: _198  and  _199
REMARK   66  A    between atoms: _198  and  _201
REMARK   67  A    between atoms: _201  and  _202
REMARK   68  A    between atoms: _205  and  _207
REMARK   69  A    between atoms: _207  and  _208
REMARK   70  A    between atoms: _207  and  _210
REMARK   71  A    between atoms: _210  and  _211
REMARK   72  A    between atoms: _212  and  ZN_432
REMARK   73  A    between atoms: _216  and  _218
REMARK   74  A    between atoms: _218  and  _219
REMARK   75  A    between atoms: _218  and  _221
REMARK   76  A    between atoms: _221  and  _222
REMARK   77  A    between atoms: _225  and  _227
REMARK   78  A    between atoms: _227  and  _228
REMARK   79  A    between atoms: _227  and  _230
REMARK   80  A    between atoms: _233  and  _235
REMARK   81  A    between atoms: _235  and  _236
REMARK   82  A    between atoms: _235  and  _238
REMARK   83  A    between atoms: _238  and  _239
REMARK   84  A    between atoms: _244  and  _246
REMARK   85  A    between atoms: _246  and  _247
REMARK   86  A    between atoms: _246  and  _249
REMARK   87  A    between atoms: _249  and  _250
REMARK   88  A    between atoms: _256  and  _258
REMARK   89  A    between atoms: _258  and  _259
REMARK   90  A    between atoms: _258  and  _261
REMARK   91  A    between atoms: _264  and  _266
REMARK   92  A    between atoms: _266  and  _267
REMARK   93  A    between atoms: _266  and  _269
REMARK   94  A    between atoms: _269  and  _270
REMARK   95  A    between atoms: _273  and  _275
REMARK   96  A    between atoms: _275  and  _276
REMARK   97  A    between atoms: _279  and  _281
REMARK   98  A    between atoms: _281  and  _282
REMARK   99  A    between atoms: _281  and  _284
REMARK  100  A    between atoms: _287  and  _289
REMARK  101  A    between atoms: _289  and  _290
REMARK  102  A    between atoms: _289  and  _292
REMARK  103  A    between atoms: _292  and  _293
REMARK  104  A    between atoms: _296  and  _298
REMARK  105  A    between atoms: _298  and  _299
REMARK  106  A    between atoms: _301  and  _303
REMARK  107  A    between atoms: _303  and  _304
REMARK  108  A    between atoms: _306  and  _308
REMARK  109  A    between atoms: _308  and  _309
REMARK  110  A    between atoms: _308  and  _311
REMARK  111  A    between atoms: _311  and  _312
REMARK  112  A    between atoms: _314  and  _316
REMARK  113  A    between atoms: _316  and  _317
REMARK  114  A    between atoms: _316  and  _319
REMARK  115  A    between atoms: _319  and  _320
REMARK  116  A    between atoms: _323  and  _325
REMARK  117  A    between atoms: _325  and  _326
REMARK  118  A    between atoms: _325  and  _328
REMARK  119  A    between atoms: _328  and  _329
REMARK  120  A    between atoms: _332  and  _334
REMARK  121  A    between atoms: _334  and  _335
REMARK  122  A    between atoms: _334  and  _337
REMARK  123  A    between atoms: _337  and  _338
REMARK  124  A    between atoms: _342  and  _343
REMARK  125  A    between atoms: _349  and  _350
REMARK  126  A    between atoms: _355  and  _357
REMARK  127  A    between atoms: _357  and  _358
REMARK  128  A    between atoms: _357  and  _360
REMARK  129  A    between atoms: _360  and  _361
REMARK  130  A    between atoms: _364  and  _366
REMARK  131  A    between atoms: _366  and  _367
REMARK  132  A    between atoms: _366  and  _369
REMARK  133  A    between atoms: _369  and  _370
REMARK  134  A    between atoms: _373  and  _375
REMARK  135  A    between atoms: _375  and  _376
REMARK  136  A    between atoms: _375  and  _378
REMARK  137  A    between atoms: _380  and  _382
REMARK  138  A    between atoms: _382  and  _383
REMARK  139  A    between atoms: _382  and  _385
REMARK  140  A    between atoms: _388  and  _390
REMARK  141  A    between atoms: _390  and  _391
REMARK  142  A    between atoms: _390  and  _393
REMARK  143  A    between atoms: _393  and  _394
REMARK  144  A    between atoms: _404  and  _406
REMARK  145  A    between atoms: _406  and  _407
REMARK  146  A    between atoms: _406  and  _409
REMARK  147  A    between atoms: _409  and  _410
REMARK  148  A    between atoms: _415  and  _417
REMARK  149  A    between atoms: _417  and  _418
REMARK  150  A    between atoms: _417  and  _420
REMARK  151  A    between atoms: _420  and  _421
REMARK  152  A    between atoms: _421  and  _422
REMARK  153  A    between atoms: _422  and  _423
REMARK                            x       y       z     vdW  Elec       q    Type
REMARK                         _______ _______ _______ _____ _____    ______ ____
ROOT
ATOM      1  O   HOH     1      17.014   4.699   6.982  0.00  0.00    +0.000 OA
ENDROOT
TORSDOF 0
REMARK  Name = ../refined-set-2016/3s71/3s71_pocket.pdb
REMARK  153 active torsions:
REMARK  status: ('A' for Active; 'I' for Inactive)
REMARK    1  A    between atoms: _1  and  _5
REMARK    2  A    between atoms: _5  and  _6
REMARK    3  A    between atoms: _5  and  _8
REMARK    4  A    between atoms: _8  and  _9
REMARK    5  A    between atoms: _14  and  _16
REMARK    6  A    between atoms: _16  and  _17
REMARK    7  A    between atoms: _16  and  _19
REMARK    8  A    between atoms: _19  and  _20
REMARK    9  A    between atoms: _30  and  _32
REMARK   10  A    between atoms: _32  and  _33
REMARK   11  A    between atoms: _32  and  _35
REMARK   12  A    between atoms: _35  and  _36
REMARK   13  A    between atoms: _41  and  _42
REMARK   14  A    between atoms: _44  and  _46
REMARK   15  A    between atoms: _46  and  _47
REMARK   16  A    between atoms: _46  and  _49
REMARK   17  A    between atoms: _49  and  _50
REMARK   18  A    between atoms: _53  and  _54
REMARK   19  A    between atoms: _59  and  _61
REMARK   20  A    between atoms: _61  and  _62
REMARK   21  A    between atoms: _61  and  _64
REMARK   22  A    between atoms: _64  and  _65
REMARK   23  A    between atoms: _70  and  _72
REMARK   24  A    between atoms: _72  and  _73
REMARK   25  A    between atoms: _72  and  _75
REMARK   26  A    between atoms: _75  and  _76
REMARK   27  A    between atoms: _81  and  _83
REMARK   28  A    between atoms: _83  and  _84
REMARK   29  A    between atoms: _87  and  _89
REMARK   30  A    between atoms: _89  and  _90
REMARK   31  A    between atoms: _89  and  _92
REMARK   32  A    between atoms: _92  and  _93
REMARK   33  A    between atoms: _98  and  _100
REMARK   34  A    between atoms: _100  and  _101
REMARK   35  A    between atoms: _100  and  _103
REMARK   36  A    between atoms: _103  and  _104
REMARK   37  A    between atoms: _107  and  _109
REMARK   38  A    between atoms: _109  and  _110
REMARK   39  A    between atoms: _109  and  _112
REMARK   40  A    between atoms: _112  and  _113
REMARK   41  A    between atoms: _113  and  _114
REMARK   42  A    between atoms: _119  and  _121
REMARK   43  A    between atoms: _121  and  _122
REMARK   44  A    between atoms: _121  and  _124
REMARK   45  A    between atoms: _124  and  _125
REMARK   46  A    between atoms: _131  and  _133
REMARK   47  A    between atoms: _144  and  _147
REMARK   48  A    between atoms: _147  and  _148
REMARK   49  A    between atoms: _156  and  _157
REMARK   50  A    between atoms: _165  and  _167
REMARK   51  A    between atoms: _167  and  _168
REMARK   52  A    between atoms: _167  and  _170
REMARK   53  A    between atoms: _170  and  _171
REMARK   54  A    between atoms: _171  and  _172
REMARK   55  A    between atoms: _175  and  _177
REMARK   56  A    between atoms: _177  and  _178
REMARK   57  A    between atoms: _177  and  _180
REMARK   58  A    between atoms: _180  and  _181
REMARK   59  A    between atoms: _186  and  _188
REMARK   60  A    between atoms: _188  and  _189
REMARK   61  A    between atoms: _188  and  _191
REMARK   62  A    between atoms: _191  and  _192
REMARK   63  A    between atoms: _192  and  _193
REMARK   64  A    between atoms: _196  and  _198
REMARK   65  A    between atoms: _198  and  _199
REMARK   66  A    between atoms: _198  and  _201
REMARK   67  A    between atoms: _201  and  _202
REMARK   68  A    between atoms: _205  and  _207
REMARK   69  A    between atoms: _207  and  _208
REMARK   70  A    between atoms: _207  and  _210
REMARK   71  A    between atoms: _210  and  _211
REMARK   72  A    between atoms: _212  and  ZN_432
REMARK   73  A    between atoms: _216  and  _218
REMARK   74  A    between atoms: _218  and  _219
REMARK   75  A    between atoms: _218  and  _221
REMARK   76  A    between atoms: _221  and  _222
REMARK   77  A    between atoms: _225  and  _227
REMARK   78  A    between atoms: _227  and  _228
REMARK   79  A    between atoms: _227  and  _230
REMARK   80  A    between atoms: _233  and  _235
REMARK   81  A    between atoms: _235  and  _236
REMARK   82  A    between atoms: _235  and  _238
REMARK   83  A    between atoms: _238  and  _239
REMARK   84  A    between atoms: _244  and  _246
REMARK   85  A    between atoms: _246  and  _247
REMARK   86  A    between atoms: _246  and  _249
REMARK   87  A    between atoms: _249  and  _250
REMARK   88  A    between atoms: _256  and  _258
REMARK   89  A    between atoms: _258  and  _259
REMARK   90  A    between atoms: _258  and  _261
REMARK   91  A    between atoms: _264  and  _266
REMARK   92  A    between atoms: _266  and  _267
REMARK   93  A    between atoms: _266  and  _269
REMARK   94  A    between atoms: _269  and  _270
REMARK   95  A    between atoms: _273  and  _275
REMARK   96  A    between atoms: _275  and  _276
REMARK   97  A    between atoms: _279  and  _281
REMARK   98  A    between atoms: _281  and  _282
REMARK   99  A    between atoms: _281  and  _284
REMARK  100  A    between atoms: _287  and  _289
REMARK  101  A    between atoms: _289  and  _290
REMARK  102  A    between atoms: _289  and  _292
REMARK  103  A    between atoms: _292  and  _293
REMARK  104  A    between atoms: _296  and  _298
REMARK  105  A    between atoms: _298  and  _299
REMARK  106  A    between atoms: _301  and  _303
REMARK  107  A    between atoms: _303  and  _304
REMARK  108  A    between atoms: _306  and  _308
REMARK  109  A    between atoms: _308  and  _309
REMARK  110  A    between atoms: _308  and  _311
REMARK  111  A    between atoms: _311  and  _312
REMARK  112  A    between atoms: _314  and  _316
REMARK  113  A    between atoms: _316  and  _317
REMARK  114  A    between atoms: _316  and  _319
REMARK  115  A    between atoms: _319  and  _320
REMARK  116  A    between atoms: _323  and  _325
REMARK  117  A    between atoms: _325  and  _326
REMARK  118  A    between atoms: _325  and  _328
REMARK  119  A    between atoms: _328  and  _329
REMARK  120  A    between atoms: _332  and  _334
REMARK  121  A    between atoms: _334  and  _335
REMARK  122  A    between atoms: _334  and  _337
REMARK  123  A    between atoms: _337  and  _338
REMARK  124  A    between atoms: _342  and  _343
REMARK  125  A    between atoms: _349  and  _350
REMARK  126  A    between atoms: _355  and  _357
REMARK  127  A    between atoms: _357  and  _358
REMARK  128  A    between atoms: _357  and  _360
REMARK  129  A    between atoms: _360  and  _361
REMARK  130  A    between atoms: _364  and  _366
REMARK  131  A    between atoms: _366  and  _367
REMARK  132  A    between atoms: _366  and  _369
REMARK  133  A    between atoms: _369  and  _370
REMARK  134  A    between atoms: _373  and  _375
REMARK  135  A    between atoms: _375  and  _376
REMARK  136  A    between atoms: _375  and  _378
REMARK  137  A    between atoms: _380  and  _382
REMARK  138  A    between atoms: _382  and  _383
REMARK  139  A    between atoms: _382  and  _385
REMARK  140  A    between atoms: _388  and  _390
REMARK  141  A    between atoms: _390  and  _391
REMARK  142  A    between atoms: _390  and  _393
REMARK  143  A    between atoms: _393  and  _394
REMARK  144  A    between atoms: _404  and  _406
REMARK  145  A    between atoms: _406  and  _407
REMARK  146  A    between atoms: _406  and  _409
REMARK  147  A    between atoms: _409  and  _410
REMARK  148  A    between atoms: _415  and  _417
REMARK  149  A    between atoms: _417  and  _418
REMARK  150  A    between atoms: _417  and  _420
REMARK  151  A    between atoms: _420  and  _421
REMARK  152  A    between atoms: _421  and  _422
REMARK  153  A    between atoms: _422  and  _423
REMARK                            x       y       z     vdW  Elec       q    Type
REMARK                         _______ _______ _______ _____ _____    ______ ____
ROOT
ATOM      1  O   HOH     1      16.589   4.433  10.142  0.00  0.00    +0.000 OA
ENDROOT
TORSDOF 0
REMARK  Name = ../refined-set-2016/3s71/3s71_pocket.pdb
REMARK  153 active torsions:
REMARK  status: ('A' for Active; 'I' for Inactive)
REMARK    1  A    between atoms: _1  and  _5
REMARK    2  A    between atoms: _5  and  _6
REMARK    3  A    between atoms: _5  and  _8
REMARK    4  A    between atoms: _8  and  _9
REMARK    5  A    between atoms: _14  and  _16
REMARK    6  A    between atoms: _16  and  _17
REMARK    7  A    between atoms: _16  and  _19
REMARK    8  A    between atoms: _19  and  _20
REMARK    9  A    between atoms: _30  and  _32
REMARK   10  A    between atoms: _32  and  _33
REMARK   11  A    between atoms: _32  and  _35
REMARK   12  A    between atoms: _35  and  _36
REMARK   13  A    between atoms: _41  and  _42
REMARK   14  A    between atoms: _44  and  _46
REMARK   15  A    between atoms: _46  and  _47
REMARK   16  A    between atoms: _46  and  _49
REMARK   17  A    between atoms: _49  and  _50
REMARK   18  A    between atoms: _53  and  _54
REMARK   19  A    between atoms: _59  and  _61
REMARK   20  A    between atoms: _61  and  _62
REMARK   21  A    between atoms: _61  and  _64
REMARK   22  A    between atoms: _64  and  _65
REMARK   23  A    between atoms: _70  and  _72
REMARK   24  A    between atoms: _72  and  _73
REMARK   25  A    between atoms: _72  and  _75
REMARK   26  A    between atoms: _75  and  _76
REMARK   27  A    between atoms: _81  and  _83
REMARK   28  A    between atoms: _83  and  _84
REMARK   29  A    between atoms: _87  and  _89
REMARK   30  A    between atoms: _89  and  _90
REMARK   31  A    between atoms: _89  and  _92
REMARK   32  A    between atoms: _92  and  _93
REMARK   33  A    between atoms: _98  and  _100
REMARK   34  A    between atoms: _100  and  _101
REMARK   35  A    between atoms: _100  and  _103
REMARK   36  A    between atoms: _103  and  _104
REMARK   37  A    between atoms: _107  and  _109
REMARK   38  A    between atoms: _109  and  _110
REMARK   39  A    between atoms: _109  and  _112
REMARK   40  A    between atoms: _112  and  _113
REMARK   41  A    between atoms: _113  and  _114
REMARK   42  A    between atoms: _119  and  _121
REMARK   43  A    between atoms: _121  and  _122
REMARK   44  A    between atoms: _121  and  _124
REMARK   45  A    between atoms: _124  and  _125
REMARK   46  A    between atoms: _131  and  _133
REMARK   47  A    between atoms: _144  and  _147
REMARK   48  A    between atoms: _147  and  _148
REMARK   49  A    between atoms: _156  and  _157
REMARK   50  A    between atoms: _165  and  _167
REMARK   51  A    between atoms: _167  and  _168
REMARK   52  A    between atoms: _167  and  _170
REMARK   53  A    between atoms: _170  and  _171
REMARK   54  A    between atoms: _171  and  _172
REMARK   55  A    between atoms: _175  and  _177
REMARK   56  A    between atoms: _177  and  _178
REMARK   57  A    between atoms: _177  and  _180
REMARK   58  A    between atoms: _180  and  _181
REMARK   59  A    between atoms: _186  and  _188
REMARK   60  A    between atoms: _188  and  _189
REMARK   61  A    between atoms: _188  and  _191
REMARK   62  A    between atoms: _191  and  _192
REMARK   63  A    between atoms: _192  and  _193
REMARK   64  A    between atoms: _196  and  _198
REMARK   65  A    between atoms: _198  and  _199
REMARK   66  A    between atoms: _198  and  _201
REMARK   67  A    between atoms: _201  and  _202
REMARK   68  A    between atoms: _205  and  _207
REMARK   69  A    between atoms: _207  and  _208
REMARK   70  A    between atoms: _207  and  _210
REMARK   71  A    between atoms: _210  and  _211
REMARK   72  A    between atoms: _212  and  ZN_432
REMARK   73  A    between atoms: _216  and  _218
REMARK   74  A    between atoms: _218  and  _219
REMARK   75  A    between atoms: _218  and  _221
REMARK   76  A    between atoms: _221  and  _222
REMARK   77  A    between atoms: _225  and  _227
REMARK   78  A    between atoms: _227  and  _228
REMARK   79  A    between atoms: _227  and  _230
REMARK   80  A    between atoms: _233  and  _235
REMARK   81  A    between atoms: _235  and  _236
REMARK   82  A    between atoms: _235  and  _238
REMARK   83  A    between atoms: _238  and  _239
REMARK   84  A    between atoms: _244  and  _246
REMARK   85  A    between atoms: _246  and  _247
REMARK   86  A    between atoms: _246  and  _249
REMARK   87  A    between atoms: _249  and  _250
REMARK   88  A    between atoms: _256  and  _258
REMARK   89  A    between atoms: _258  and  _259
REMARK   90  A    between atoms: _258  and  _261
REMARK   91  A    between atoms: _264  and  _266
REMARK   92  A    between atoms: _266  and  _267
REMARK   93  A    between atoms: _266  and  _269
REMARK   94  A    between atoms: _269  and  _270
REMARK   95  A    between atoms: _273  and  _275
REMARK   96  A    between atoms: _275  and  _276
REMARK   97  A    between atoms: _279  and  _281
REMARK   98  A    between atoms: _281  and  _282
REMARK   99  A    between atoms: _281  and  _284
REMARK  100  A    between atoms: _287  and  _289
REMARK  101  A    between atoms: _289  and  _290
REMARK  102  A    between atoms: _289  and  _292
REMARK  103  A    between atoms: _292  and  _293
REMARK  104  A    between atoms: _296  and  _298
REMARK  105  A    between atoms: _298  and  _299
REMARK  106  A    between atoms: _301  and  _303
REMARK  107  A    between atoms: _303  and  _304
REMARK  108  A    between atoms: _306  and  _308
REMARK  109  A    between atoms: _308  and  _309
REMARK  110  A    between atoms: _308  and  _311
REMARK  111  A    between atoms: _311  and  _312
REMARK  112  A    between atoms: _314  and  _316
REMARK  113  A    between atoms: _316  and  _317
REMARK  114  A    between atoms: _316  and  _319
REMARK  115  A    between atoms: _319  and  _320
REMARK  116  A    between atoms: _323  and  _325
REMARK  117  A    between atoms: _325  and  _326
REMARK  118  A    between atoms: _325  and  _328
REMARK  119  A    between atoms: _328  and  _329
REMARK  120  A    between atoms: _332  and  _334
REMARK  121  A    between atoms: _334  and  _335
REMARK  122  A    between atoms: _334  and  _337
REMARK  123  A    between atoms: _337  and  _338
REMARK  124  A    between atoms: _342  and  _343
REMARK  125  A    between atoms: _349  and  _350
REMARK  126  A    between atoms: _355  and  _357
REMARK  127  A    between atoms: _357  and  _358
REMARK  128  A    between atoms: _357  and  _360
REMARK  129  A    between atoms: _360  and  _361
REMARK  130  A    between atoms: _364  and  _366
REMARK  131  A    between atoms: _366  and  _367
REMARK  132  A    between atoms: _366  and  _369
REMARK  133  A    between atoms: _369  and  _370
REMARK  134  A    between atoms: _373  and  _375
REMARK  135  A    between atoms: _375  and  _376
REMARK  136  A    between atoms: _375  and  _378
REMARK  137  A    between atoms: _380  and  _382
REMARK  138  A    between atoms: _382  and  _383
REMARK  139  A    between atoms: _382  and  _385
REMARK  140  A    between atoms: _388  and  _390
REMARK  141  A    between atoms: _390  and  _391
REMARK  142  A    between atoms: _390  and  _393
REMARK  143  A    between atoms: _393  and  _394
REMARK  144  A    between atoms: _404  and  _406
REMARK  145  A    between atoms: _406  and  _407
REMARK  146  A    between atoms: _406  and  _409
REMARK  147  A    between atoms: _409  and  _410
REMARK  148  A    between atoms: _415  and  _417
REMARK  149  A    between atoms: _417  and  _418
REMARK  150  A    between atoms: _417  and  _420
REMARK  151  A    between atoms: _420  and  _421
REMARK  152  A    between atoms: _421  and  _422
REMARK  153  A    between atoms: _422  and  _423
REMARK                            x       y       z     vdW  Elec       q    Type
REMARK                         _______ _______ _______ _____ _____    ______ ____
ROOT
ATOM      1  O   HOH     1      16.006   0.630   9.895  0.00  0.00    +0.000 OA
ENDROOT
TORSDOF 0
REMARK  Name = ../refined-set-2016/3s71/3s71_pocket.pdb
REMARK  153 active torsions:
REMARK  status: ('A' for Active; 'I' for Inactive)
REMARK    1  A    between atoms: _1  and  _5
REMARK    2  A    between atoms: _5  and  _6
REMARK    3  A    between atoms: _5  and  _8
REMARK    4  A    between atoms: _8  and  _9
REMARK    5  A    between atoms: _14  and  _16
REMARK    6  A    between atoms: _16  and  _17
REMARK    7  A    between atoms: _16  and  _19
REMARK    8  A    between atoms: _19  and  _20
REMARK    9  A    between atoms: _30  and  _32
REMARK   10  A    between atoms: _32  and  _33
REMARK   11  A    between atoms: _32  and  _35
REMARK   12  A    between atoms: _35  and  _36
REMARK   13  A    between atoms: _41  and  _42
REMARK   14  A    between atoms: _44  and  _46
REMARK   15  A    between atoms: _46  and  _47
REMARK   16  A    between atoms: _46  and  _49
REMARK   17  A    between atoms: _49  and  _50
REMARK   18  A    between atoms: _53  and  _54
REMARK   19  A    between atoms: _59  and  _61
REMARK   20  A    between atoms: _61  and  _62
REMARK   21  A    between atoms: _61  and  _64
REMARK   22  A    between atoms: _64  and  _65
REMARK   23  A    between atoms: _70  and  _72
REMARK   24  A    between atoms: _72  and  _73
REMARK   25  A    between atoms: _72  and  _75
REMARK   26  A    between atoms: _75  and  _76
REMARK   27  A    between atoms: _81  and  _83
REMARK   28  A    between atoms: _83  and  _84
REMARK   29  A    between atoms: _87  and  _89
REMARK   30  A    between atoms: _89  and  _90
REMARK   31  A    between atoms: _89  and  _92
REMARK   32  A    between atoms: _92  and  _93
REMARK   33  A    between atoms: _98  and  _100
REMARK   34  A    between atoms: _100  and  _101
REMARK   35  A    between atoms: _100  and  _103
REMARK   36  A    between atoms: _103  and  _104
REMARK   37  A    between atoms: _107  and  _109
REMARK   38  A    between atoms: _109  and  _110
REMARK   39  A    between atoms: _109  and  _112
REMARK   40  A    between atoms: _112  and  _113
REMARK   41  A    between atoms: _113  and  _114
REMARK   42  A    between atoms: _119  and  _121
REMARK   43  A    between atoms: _121  and  _122
REMARK   44  A    between atoms: _121  and  _124
REMARK   45  A    between atoms: _124  and  _125
REMARK   46  A    between atoms: _131  and  _133
REMARK   47  A    between atoms: _144  and  _147
REMARK   48  A    between atoms: _147  and  _148
REMARK   49  A    between atoms: _156  and  _157
REMARK   50  A    between atoms: _165  and  _167
REMARK   51  A    between atoms: _167  and  _168
REMARK   52  A    between atoms: _167  and  _170
REMARK   53  A    between atoms: _170  and  _171
REMARK   54  A    between atoms: _171  and  _172
REMARK   55  A    between atoms: _175  and  _177
REMARK   56  A    between atoms: _177  and  _178
REMARK   57  A    between atoms: _177  and  _180
REMARK   58  A    between atoms: _180  and  _181
REMARK   59  A    between atoms: _186  and  _188
REMARK   60  A    between atoms: _188  and  _189
REMARK   61  A    between atoms: _188  and  _191
REMARK   62  A    between atoms: _191  and  _192
REMARK   63  A    between atoms: _192  and  _193
REMARK   64  A    between atoms: _196  and  _198
REMARK   65  A    between atoms: _198  and  _199
REMARK   66  A    between atoms: _198  and  _201
REMARK   67  A    between atoms: _201  and  _202
REMARK   68  A    between atoms: _205  and  _207
REMARK   69  A    between atoms: _207  and  _208
REMARK   70  A    between atoms: _207  and  _210
REMARK   71  A    between atoms: _210  and  _211
REMARK   72  A    between atoms: _212  and  ZN_432
REMARK   73  A    between atoms: _216  and  _218
REMARK   74  A    between atoms: _218  and  _219
REMARK   75  A    between atoms: _218  and  _221
REMARK   76  A    between atoms: _221  and  _222
REMARK   77  A    between atoms: _225  and  _227
REMARK   78  A    between atoms: _227  and  _228
REMARK   79  A    between atoms: _227  and  _230
REMARK   80  A    between atoms: _233  and  _235
REMARK   81  A    between atoms: _235  and  _236
REMARK   82  A    between atoms: _235  and  _238
REMARK   83  A    between atoms: _238  and  _239
REMARK   84  A    between atoms: _244  and  _246
REMARK   85  A    between atoms: _246  and  _247
REMARK   86  A    between atoms: _246  and  _249
REMARK   87  A    between atoms: _249  and  _250
REMARK   88  A    between atoms: _256  and  _258
REMARK   89  A    between atoms: _258  and  _259
REMARK   90  A    between atoms: _258  and  _261
REMARK   91  A    between atoms: _264  and  _266
REMARK   92  A    between atoms: _266  and  _267
REMARK   93  A    between atoms: _266  and  _269
REMARK   94  A    between atoms: _269  and  _270
REMARK   95  A    between atoms: _273  and  _275
REMARK   96  A    between atoms: _275  and  _276
REMARK   97  A    between atoms: _279  and  _281
REMARK   98  A    between atoms: _281  and  _282
REMARK   99  A    between atoms: _281  and  _284
REMARK  100  A    between atoms: _287  and  _289
REMARK  101  A    between atoms: _289  and  _290
REMARK  102  A    between atoms: _289  and  _292
REMARK  103  A    between atoms: _292  and  _293
REMARK  104  A    between atoms: _296  and  _298
REMARK  105  A    between atoms: _298  and  _299
REMARK  106  A    between atoms: _301  and  _303
REMARK  107  A    between atoms: _303  and  _304
REMARK  108  A    between atoms: _306  and  _308
REMARK  109  A    between atoms: _308  and  _309
REMARK  110  A    between atoms: _308  and  _311
REMARK  111  A    between atoms: _311  and  _312
REMARK  112  A    between atoms: _314  and  _316
REMARK  113  A    between atoms: _316  and  _317
REMARK  114  A    between atoms: _316  and  _319
REMARK  115  A    between atoms: _319  and  _320
REMARK  116  A    between atoms: _323  and  _325
REMARK  117  A    between atoms: _325  and  _326
REMARK  118  A    between atoms: _325  and  _328
REMARK  119  A    between atoms: _328  and  _329
REMARK  120  A    between atoms: _332  and  _334
REMARK  121  A    between atoms: _334  and  _335
REMARK  122  A    between atoms: _334  and  _337
REMARK  123  A    between atoms: _337  and  _338
REMARK  124  A    between atoms: _342  and  _343
REMARK  125  A    between atoms: _349  and  _350
REMARK  126  A    between atoms: _355  and  _357
REMARK  127  A    between atoms: _357  and  _358
REMARK  128  A    between atoms: _357  and  _360
REMARK  129  A    between atoms: _360  and  _361
REMARK  130  A    between atoms: _364  and  _366
REMARK  131  A    between atoms: _366  and  _367
REMARK  132  A    between atoms: _366  and  _369
REMARK  133  A    between atoms: _369  and  _370
REMARK  134  A    between atoms: _373  and  _375
REMARK  135  A    between atoms: _375  and  _376
REMARK  136  A    between atoms: _375  and  _378
REMARK  137  A    between atoms: _380  and  _382
REMARK  138  A    between atoms: _382  and  _383
REMARK  139  A    between atoms: _382  and  _385
REMARK  140  A    between atoms: _388  and  _390
REMARK  141  A    between atoms: _390  and  _391
REMARK  142  A    between atoms: _390  and  _393
REMARK  143  A    between atoms: _393  and  _394
REMARK  144  A    between atoms: _404  and  _406
REMARK  145  A    between atoms: _406  and  _407
REMARK  146  A    between atoms: _406  and  _409
REMARK  147  A    between atoms: _409  and  _410
REMARK  148  A    between atoms: _415  and  _417
REMARK  149  A    between atoms: _417  and  _418
REMARK  150  A    between atoms: _417  and  _420
REMARK  151  A    between atoms: _420  and  _421
REMARK  152  A    between atoms: _421  and  _422
REMARK  153  A    between atoms: _422  and  _423
REMARK                            x       y       z     vdW  Elec       q    Type
REMARK                         _______ _______ _______ _____ _____    ______ ____
ROOT
ATOM      1  O   HOH     1      20.506   4.372   7.931  0.00  0.00    +0.000 OA
ENDROOT
TORSDOF 0
REMARK  Name = ../refined-set-2016/3s71/3s71_pocket.pdb
REMARK  153 active torsions:
REMARK  status: ('A' for Active; 'I' for Inactive)
REMARK    1  A    between atoms: _1  and  _5
REMARK    2  A    between atoms: _5  and  _6
REMARK    3  A    between atoms: _5  and  _8
REMARK    4  A    between atoms: _8  and  _9
REMARK    5  A    between atoms: _14  and  _16
REMARK    6  A    between atoms: _16  and  _17
REMARK    7  A    between atoms: _16  and  _19
REMARK    8  A    between atoms: _19  and  _20
REMARK    9  A    between atoms: _30  and  _32
REMARK   10  A    between atoms: _32  and  _33
REMARK   11  A    between atoms: _32  and  _35
REMARK   12  A    between atoms: _35  and  _36
REMARK   13  A    between atoms: _41  and  _42
REMARK   14  A    between atoms: _44  and  _46
REMARK   15  A    between atoms: _46  and  _47
REMARK   16  A    between atoms: _46  and  _49
REMARK   17  A    between atoms: _49  and  _50
REMARK   18  A    between atoms: _53  and  _54
REMARK   19  A    between atoms: _59  and  _61
REMARK   20  A    between atoms: _61  and  _62
REMARK   21  A    between atoms: _61  and  _64
REMARK   22  A    between atoms: _64  and  _65
REMARK   23  A    between atoms: _70  and  _72
REMARK   24  A    between atoms: _72  and  _73
REMARK   25  A    between atoms: _72  and  _75
REMARK   26  A    between atoms: _75  and  _76
REMARK   27  A    between atoms: _81  and  _83
REMARK   28  A    between atoms: _83  and  _84
REMARK   29  A    between atoms: _87  and  _89
REMARK   30  A    between atoms: _89  and  _90
REMARK   31  A    between atoms: _89  and  _92
REMARK   32  A    between atoms: _92  and  _93
REMARK   33  A    between atoms: _98  and  _100
REMARK   34  A    between atoms: _100  and  _101
REMARK   35  A    between atoms: _100  and  _103
REMARK   36  A    between atoms: _103  and  _104
REMARK   37  A    between atoms: _107  and  _109
REMARK   38  A    between atoms: _109  and  _110
REMARK   39  A    between atoms: _109  and  _112
REMARK   40  A    between atoms: _112  and  _113
REMARK   41  A    between atoms: _113  and  _114
REMARK   42  A    between atoms: _119  and  _121
REMARK   43  A    between atoms: _121  and  _122
REMARK   44  A    between atoms: _121  and  _124
REMARK   45  A    between atoms: _124  and  _125
REMARK   46  A    between atoms: _131  and  _133
REMARK   47  A    between atoms: _144  and  _147
REMARK   48  A    between atoms: _147  and  _148
REMARK   49  A    between atoms: _156  and  _157
REMARK   50  A    between atoms: _165  and  _167
REMARK   51  A    between atoms: _167  and  _168
REMARK   52  A    between atoms: _167  and  _170
REMARK   53  A    between atoms: _170  and  _171
REMARK   54  A    between atoms: _171  and  _172
REMARK   55  A    between atoms: _175  and  _177
REMARK   56  A    between atoms: _177  and  _178
REMARK   57  A    between atoms: _177  and  _180
REMARK   58  A    between atoms: _180  and  _181
REMARK   59  A    between atoms: _186  and  _188
REMARK   60  A    between atoms: _188  and  _189
REMARK   61  A    between atoms: _188  and  _191
REMARK   62  A    between atoms: _191  and  _192
REMARK   63  A    between atoms: _192  and  _193
REMARK   64  A    between atoms: _196  and  _198
REMARK   65  A    between atoms: _198  and  _199
REMARK   66  A    between atoms: _198  and  _201
REMARK   67  A    between atoms: _201  and  _202
REMARK   68  A    between atoms: _205  and  _207
REMARK   69  A    between atoms: _207  and  _208
REMARK   70  A    between atoms: _207  and  _210
REMARK   71  A    between atoms: _210  and  _211
REMARK   72  A    between atoms: _212  and  ZN_432
REMARK   73  A    between atoms: _216  and  _218
REMARK   74  A    between atoms: _218  and  _219
REMARK   75  A    between atoms: _218  and  _221
REMARK   76  A    between atoms: _221  and  _222
REMARK   77  A    between atoms: _225  and  _227
REMARK   78  A    between atoms: _227  and  _228
REMARK   79  A    between atoms: _227  and  _230
REMARK   80  A    between atoms: _233  and  _235
REMARK   81  A    between atoms: _235  and  _236
REMARK   82  A    between atoms: _235  and  _238
REMARK   83  A    between atoms: _238  and  _239
REMARK   84  A    between atoms: _244  and  _246
REMARK   85  A    between atoms: _246  and  _247
REMARK   86  A    between atoms: _246  and  _249
REMARK   87  A    between atoms: _249  and  _250
REMARK   88  A    between atoms: _256  and  _258
REMARK   89  A    between atoms: _258  and  _259
REMARK   90  A    between atoms: _258  and  _261
REMARK   91  A    between atoms: _264  and  _266
REMARK   92  A    between atoms: _266  and  _267
REMARK   93  A    between atoms: _266  and  _269
REMARK   94  A    between atoms: _269  and  _270
REMARK   95  A    between atoms: _273  and  _275
REMARK   96  A    between atoms: _275  and  _276
REMARK   97  A    between atoms: _279  and  _281
REMARK   98  A    between atoms: _281  and  _282
REMARK   99  A    between atoms: _281  and  _284
REMARK  100  A    between atoms: _287  and  _289
REMARK  101  A    between atoms: _289  and  _290
REMARK  102  A    between atoms: _289  and  _292
REMARK  103  A    between atoms: _292  and  _293
REMARK  104  A    between atoms: _296  and  _298
REMARK  105  A    between atoms: _298  and  _299
REMARK  106  A    between atoms: _301  and  _303
REMARK  107  A    between atoms: _303  and  _304
REMARK  108  A    between atoms: _306  and  _308
REMARK  109  A    between atoms: _308  and  _309
REMARK  110  A    between atoms: _308  and  _311
REMARK  111  A    between atoms: _311  and  _312
REMARK  112  A    between atoms: _314  and  _316
REMARK  113  A    between atoms: _316  and  _317
REMARK  114  A    between atoms: _316  and  _319
REMARK  115  A    between atoms: _319  and  _320
REMARK  116  A    between atoms: _323  and  _325
REMARK  117  A    between atoms: _325  and  _326
REMARK  118  A    between atoms: _325  and  _328
REMARK  119  A    between atoms: _328  and  _329
REMARK  120  A    between atoms: _332  and  _334
REMARK  121  A    between atoms: _334  and  _335
REMARK  122  A    between atoms: _334  and  _337
REMARK  123  A    between atoms: _337  and  _338
REMARK  124  A    between atoms: _342  and  _343
REMARK  125  A    between atoms: _349  and  _350
REMARK  126  A    between atoms: _355  and  _357
REMARK  127  A    between atoms: _357  and  _358
REMARK  128  A    between atoms: _357  and  _360
REMARK  129  A    between atoms: _360  and  _361
REMARK  130  A    between atoms: _364  and  _366
REMARK  131  A    between atoms: _366  and  _367
REMARK  132  A    between atoms: _366  and  _369
REMARK  133  A    between atoms: _369  and  _370
REMARK  134  A    between atoms: _373  and  _375
REMARK  135  A    between atoms: _375  and  _376
REMARK  136  A    between atoms: _375  and  _378
REMARK  137  A    between atoms: _380  and  _382
REMARK  138  A    between atoms: _382  and  _383
REMARK  139  A    between atoms: _382  and  _385
REMARK  140  A    between atoms: _388  and  _390
REMARK  141  A    between atoms: _390  and  _391
REMARK  142  A    between atoms: _390  and  _393
REMARK  143  A    between atoms: _393  and  _394
REMARK  144  A    between atoms: _404  and  _406
REMARK  145  A    between atoms: _406  and  _407
REMARK  146  A    between atoms: _406  and  _409
REMARK  147  A    between atoms: _409  and  _410
REMARK  148  A    between atoms: _415  and  _417
REMARK  149  A    between atoms: _417  and  _418
REMARK  150  A    between atoms: _417  and  _420
REMARK  151  A    between atoms: _420  and  _421
REMARK  152  A    between atoms: _421  and  _422
REMARK  153  A    between atoms: _422  and  _423
REMARK                            x       y       z     vdW  Elec       q    Type
REMARK                         _______ _______ _______ _____ _____    ______ ____
ROOT
ATOM      1  O   HOH     1      16.503   8.459  11.191  0.00  0.00    +0.000 OA
ENDROOT
TORSDOF 0
REMARK  Name = ../refined-set-2016/3s71/3s71_pocket.pdb
REMARK  153 active torsions:
REMARK  status: ('A' for Active; 'I' for Inactive)
REMARK    1  A    between atoms: _1  and  _5
REMARK    2  A    between atoms: _5  and  _6
REMARK    3  A    between atoms: _5  and  _8
REMARK    4  A    between atoms: _8  and  _9
REMARK    5  A    between atoms: _14  and  _16
REMARK    6  A    between atoms: _16  and  _17
REMARK    7  A    between atoms: _16  and  _19
REMARK    8  A    between atoms: _19  and  _20
REMARK    9  A    between atoms: _30  and  _32
REMARK   10  A    between atoms: _32  and  _33
REMARK   11  A    between atoms: _32  and  _35
REMARK   12  A    between atoms: _35  and  _36
REMARK   13  A    between atoms: _41  and  _42
REMARK   14  A    between atoms: _44  and  _46
REMARK   15  A    between atoms: _46  and  _47
REMARK   16  A    between atoms: _46  and  _49
REMARK   17  A    between atoms: _49  and  _50
REMARK   18  A    between atoms: _53  and  _54
REMARK   19  A    between atoms: _59  and  _61
REMARK   20  A    between atoms: _61  and  _62
REMARK   21  A    between atoms: _61  and  _64
REMARK   22  A    between atoms: _64  and  _65
REMARK   23  A    between atoms: _70  and  _72
REMARK   24  A    between atoms: _72  and  _73
REMARK   25  A    between atoms: _72  and  _75
REMARK   26  A    between atoms: _75  and  _76
REMARK   27  A    between atoms: _81  and  _83
REMARK   28  A    between atoms: _83  and  _84
REMARK   29  A    between atoms: _87  and  _89
REMARK   30  A    between atoms: _89  and  _90
REMARK   31  A    between atoms: _89  and  _92
REMARK   32  A    between atoms: _92  and  _93
REMARK   33  A    between atoms: _98  and  _100
REMARK   34  A    between atoms: _100  and  _101
REMARK   35  A    between atoms: _100  and  _103
REMARK   36  A    between atoms: _103  and  _104
REMARK   37  A    between atoms: _107  and  _109
REMARK   38  A    between atoms: _109  and  _110
REMARK   39  A    between atoms: _109  and  _112
REMARK   40  A    between atoms: _112  and  _113
REMARK   41  A    between atoms: _113  and  _114
REMARK   42  A    between atoms: _119  and  _121
REMARK   43  A    between atoms: _121  and  _122
REMARK   44  A    between atoms: _121  and  _124
REMARK   45  A    between atoms: _124  and  _125
REMARK   46  A    between atoms: _131  and  _133
REMARK   47  A    between atoms: _144  and  _147
REMARK   48  A    between atoms: _147  and  _148
REMARK   49  A    between atoms: _156  and  _157
REMARK   50  A    between atoms: _165  and  _167
REMARK   51  A    between atoms: _167  and  _168
REMARK   52  A    between atoms: _167  and  _170
REMARK   53  A    between atoms: _170  and  _171
REMARK   54  A    between atoms: _171  and  _172
REMARK   55  A    between atoms: _175  and  _177
REMARK   56  A    between atoms: _177  and  _178
REMARK   57  A    between atoms: _177  and  _180
REMARK   58  A    between atoms: _180  and  _181
REMARK   59  A    between atoms: _186  and  _188
REMARK   60  A    between atoms: _188  and  _189
REMARK   61  A    between atoms: _188  and  _191
REMARK   62  A    between atoms: _191  and  _192
REMARK   63  A    between atoms: _192  and  _193
REMARK   64  A    between atoms: _196  and  _198
REMARK   65  A    between atoms: _198  and  _199
REMARK   66  A    between atoms: _198  and  _201
REMARK   67  A    between atoms: _201  and  _202
REMARK   68  A    between atoms: _205  and  _207
REMARK   69  A    between atoms: _207  and  _208
REMARK   70  A    between atoms: _207  and  _210
REMARK   71  A    between atoms: _210  and  _211
REMARK   72  A    between atoms: _212  and  ZN_432
REMARK   73  A    between atoms: _216  and  _218
REMARK   74  A    between atoms: _218  and  _219
REMARK   75  A    between atoms: _218  and  _221
REMARK   76  A    between atoms: _221  and  _222
REMARK   77  A    between atoms: _225  and  _227
REMARK   78  A    between atoms: _227  and  _228
REMARK   79  A    between atoms: _227  and  _230
REMARK   80  A    between atoms: _233  and  _235
REMARK   81  A    between atoms: _235  and  _236
REMARK   82  A    between atoms: _235  and  _238
REMARK   83  A    between atoms: _238  and  _239
REMARK   84  A    between atoms: _244  and  _246
REMARK   85  A    between atoms: _246  and  _247
REMARK   86  A    between atoms: _246  and  _249
REMARK   87  A    between atoms: _249  and  _250
REMARK   88  A    between atoms: _256  and  _258
REMARK   89  A    between atoms: _258  and  _259
REMARK   90  A    between atoms: _258  and  _261
REMARK   91  A    between atoms: _264  and  _266
REMARK   92  A    between atoms: _266  and  _267
REMARK   93  A    between atoms: _266  and  _269
REMARK   94  A    between atoms: _269  and  _270
REMARK   95  A    between atoms: _273  and  _275
REMARK   96  A    between atoms: _275  and  _276
REMARK   97  A    between atoms: _279  and  _281
REMARK   98  A    between atoms: _281  and  _282
REMARK   99  A    between atoms: _281  and  _284
REMARK  100  A    between atoms: _287  and  _289
REMARK  101  A    between atoms: _289  and  _290
REMARK  102  A    between atoms: _289  and  _292
REMARK  103  A    between atoms: _292  and  _293
REMARK  104  A    between atoms: _296  and  _298
REMARK  105  A    between atoms: _298  and  _299
REMARK  106  A    between atoms: _301  and  _303
REMARK  107  A    between atoms: _303  and  _304
REMARK  108  A    between atoms: _306  and  _308
REMARK  109  A    between atoms: _308  and  _309
REMARK  110  A    between atoms: _308  and  _311
REMARK  111  A    between atoms: _311  and  _312
REMARK  112  A    between atoms: _314  and  _316
REMARK  113  A    between atoms: _316  and  _317
REMARK  114  A    between atoms: _316  and  _319
REMARK  115  A    between atoms: _319  and  _320
REMARK  116  A    between atoms: _323  and  _325
REMARK  117  A    between atoms: _325  and  _326
REMARK  118  A    between atoms: _325  and  _328
REMARK  119  A    between atoms: _328  and  _329
REMARK  120  A    between atoms: _332  and  _334
REMARK  121  A    between atoms: _334  and  _335
REMARK  122  A    between atoms: _334  and  _337
REMARK  123  A    between atoms: _337  and  _338
REMARK  124  A    between atoms: _342  and  _343
REMARK  125  A    between atoms: _349  and  _350
REMARK  126  A    between atoms: _355  and  _357
REMARK  127  A    between atoms: _357  and  _358
REMARK  128  A    between atoms: _357  and  _360
REMARK  129  A    between atoms: _360  and  _361
REMARK  130  A    between atoms: _364  and  _366
REMARK  131  A    between atoms: _366  and  _367
REMARK  132  A    between atoms: _366  and  _369
REMARK  133  A    between atoms: _369  and  _370
REMARK  134  A    between atoms: _373  and  _375
REMARK  135  A    between atoms: _375  and  _376
REMARK  136  A    between atoms: _375  and  _378
REMARK  137  A    between atoms: _380  and  _382
REMARK  138  A    between atoms: _382  and  _383
REMARK  139  A    between atoms: _382  and  _385
REMARK  140  A    between atoms: _388  and  _390
REMARK  141  A    between atoms: _390  and  _391
REMARK  142  A    between atoms: _390  and  _393
REMARK  143  A    between atoms: _393  and  _394
REMARK  144  A    between atoms: _404  and  _406
REMARK  145  A    between atoms: _406  and  _407
REMARK  146  A    between atoms: _406  and  _409
REMARK  147  A    between atoms: _409  and  _410
REMARK  148  A    between atoms: _415  and  _417
REMARK  149  A    between atoms: _417  and  _418
REMARK  150  A    between atoms: _417  and  _420
REMARK  151  A    between atoms: _420  and  _421
REMARK  152  A    between atoms: _421  and  _422
REMARK  153  A    between atoms: _422  and  _423
REMARK                            x       y       z     vdW  Elec       q    Type
REMARK                         _______ _______ _______ _____ _____    ______ ____
ROOT
ATOM      1  O   HOH     1      25.103   7.020  13.601  0.00  0.00    +0.000 OA
ENDROOT
TORSDOF 0
REMARK  Name = ../refined-set-2016/3s71/3s71_pocket.pdb
REMARK  153 active torsions:
REMARK  status: ('A' for Active; 'I' for Inactive)
REMARK    1  A    between atoms: _1  and  _5
REMARK    2  A    between atoms: _5  and  _6
REMARK    3  A    between atoms: _5  and  _8
REMARK    4  A    between atoms: _8  and  _9
REMARK    5  A    between atoms: _14  and  _16
REMARK    6  A    between atoms: _16  and  _17
REMARK    7  A    between atoms: _16  and  _19
REMARK    8  A    between atoms: _19  and  _20
REMARK    9  A    between atoms: _30  and  _32
REMARK   10  A    between atoms: _32  and  _33
REMARK   11  A    between atoms: _32  and  _35
REMARK   12  A    between atoms: _35  and  _36
REMARK   13  A    between atoms: _41  and  _42
REMARK   14  A    between atoms: _44  and  _46
REMARK   15  A    between atoms: _46  and  _47
REMARK   16  A    between atoms: _46  and  _49
REMARK   17  A    between atoms: _49  and  _50
REMARK   18  A    between atoms: _53  and  _54
REMARK   19  A    between atoms: _59  and  _61
REMARK   20  A    between atoms: _61  and  _62
REMARK   21  A    between atoms: _61  and  _64
REMARK   22  A    between atoms: _64  and  _65
REMARK   23  A    between atoms: _70  and  _72
REMARK   24  A    between atoms: _72  and  _73
REMARK   25  A    between atoms: _72  and  _75
REMARK   26  A    between atoms: _75  and  _76
REMARK   27  A    between atoms: _81  and  _83
REMARK   28  A    between atoms: _83  and  _84
REMARK   29  A    between atoms: _87  and  _89
REMARK   30  A    between atoms: _89  and  _90
REMARK   31  A    between atoms: _89  and  _92
REMARK   32  A    between atoms: _92  and  _93
REMARK   33  A    between atoms: _98  and  _100
REMARK   34  A    between atoms: _100  and  _101
REMARK   35  A    between atoms: _100  and  _103
REMARK   36  A    between atoms: _103  and  _104
REMARK   37  A    between atoms: _107  and  _109
REMARK   38  A    between atoms: _109  and  _110
REMARK   39  A    between atoms: _109  and  _112
REMARK   40  A    between atoms: _112  and  _113
REMARK   41  A    between atoms: _113  and  _114
REMARK   42  A    between atoms: _119  and  _121
REMARK   43  A    between atoms: _121  and  _122
REMARK   44  A    between atoms: _121  and  _124
REMARK   45  A    between atoms: _124  and  _125
REMARK   46  A    between atoms: _131  and  _133
REMARK   47  A    between atoms: _144  and  _147
REMARK   48  A    between atoms: _147  and  _148
REMARK   49  A    between atoms: _156  and  _157
REMARK   50  A    between atoms: _165  and  _167
REMARK   51  A    between atoms: _167  and  _168
REMARK   52  A    between atoms: _167  and  _170
REMARK   53  A    between atoms: _170  and  _171
REMARK   54  A    between atoms: _171  and  _172
REMARK   55  A    between atoms: _175  and  _177
REMARK   56  A    between atoms: _177  and  _178
REMARK   57  A    between atoms: _177  and  _180
REMARK   58  A    between atoms: _180  and  _181
REMARK   59  A    between atoms: _186  and  _188
REMARK   60  A    between atoms: _188  and  _189
REMARK   61  A    between atoms: _188  and  _191
REMARK   62  A    between atoms: _191  and  _192
REMARK   63  A    between atoms: _192  and  _193
REMARK   64  A    between atoms: _196  and  _198
REMARK   65  A    between atoms: _198  and  _199
REMARK   66  A    between atoms: _198  and  _201
REMARK   67  A    between atoms: _201  and  _202
REMARK   68  A    between atoms: _205  and  _207
REMARK   69  A    between atoms: _207  and  _208
REMARK   70  A    between atoms: _207  and  _210
REMARK   71  A    between atoms: _210  and  _211
REMARK   72  A    between atoms: _212  and  ZN_432
REMARK   73  A    between atoms: _216  and  _218
REMARK   74  A    between atoms: _218  and  _219
REMARK   75  A    between atoms: _218  and  _221
REMARK   76  A    between atoms: _221  and  _222
REMARK   77  A    between atoms: _225  and  _227
REMARK   78  A    between atoms: _227  and  _228
REMARK   79  A    between atoms: _227  and  _230
REMARK   80  A    between atoms: _233  and  _235
REMARK   81  A    between atoms: _235  and  _236
REMARK   82  A    between atoms: _235  and  _238
REMARK   83  A    between atoms: _238  and  _239
REMARK   84  A    between atoms: _244  and  _246
REMARK   85  A    between atoms: _246  and  _247
REMARK   86  A    between atoms: _246  and  _249
REMARK   87  A    between atoms: _249  and  _250
REMARK   88  A    between atoms: _256  and  _258
REMARK   89  A    between atoms: _258  and  _259
REMARK   90  A    between atoms: _258  and  _261
REMARK   91  A    between atoms: _264  and  _266
REMARK   92  A    between atoms: _266  and  _267
REMARK   93  A    between atoms: _266  and  _269
REMARK   94  A    between atoms: _269  and  _270
REMARK   95  A    between atoms: _273  and  _275
REMARK   96  A    between atoms: _275  and  _276
REMARK   97  A    between atoms: _279  and  _281
REMARK   98  A    between atoms: _281  and  _282
REMARK   99  A    between atoms: _281  and  _284
REMARK  100  A    between atoms: _287  and  _289
REMARK  101  A    between atoms: _289  and  _290
REMARK  102  A    between atoms: _289  and  _292
REMARK  103  A    between atoms: _292  and  _293
REMARK  104  A    between atoms: _296  and  _298
REMARK  105  A    between atoms: _298  and  _299
REMARK  106  A    between atoms: _301  and  _303
REMARK  107  A    between atoms: _303  and  _304
REMARK  108  A    between atoms: _306  and  _308
REMARK  109  A    between atoms: _308  and  _309
REMARK  110  A    between atoms: _308  and  _311
REMARK  111  A    between atoms: _311  and  _312
REMARK  112  A    between atoms: _314  and  _316
REMARK  113  A    between atoms: _316  and  _317
REMARK  114  A    between atoms: _316  and  _319
REMARK  115  A    between atoms: _319  and  _320
REMARK  116  A    between atoms: _323  and  _325
REMARK  117  A    between atoms: _325  and  _326
REMARK  118  A    between atoms: _325  and  _328
REMARK  119  A    between atoms: _328  and  _329
REMARK  120  A    between atoms: _332  and  _334
REMARK  121  A    between atoms: _334  and  _335
REMARK  122  A    between atoms: _334  and  _337
REMARK  123  A    between atoms: _337  and  _338
REMARK  124  A    between atoms: _342  and  _343
REMARK  125  A    between atoms: _349  and  _350
REMARK  126  A    between atoms: _355  and  _357
REMARK  127  A    between atoms: _357  and  _358
REMARK  128  A    between atoms: _357  and  _360
REMARK  129  A    between atoms: _360  and  _361
REMARK  130  A    between atoms: _364  and  _366
REMARK  131  A    between atoms: _366  and  _367
REMARK  132  A    between atoms: _366  and  _369
REMARK  133  A    between atoms: _369  and  _370
REMARK  134  A    between atoms: _373  and  _375
REMARK  135  A    between atoms: _375  and  _376
REMARK  136  A    between atoms: _375  and  _378
REMARK  137  A    between atoms: _380  and  _382
REMARK  138  A    between atoms: _382  and  _383
REMARK  139  A    between atoms: _382  and  _385
REMARK  140  A    between atoms: _388  and  _390
REMARK  141  A    between atoms: _390  and  _391
REMARK  142  A    between atoms: _390  and  _393
REMARK  143  A    between atoms: _393  and  _394
REMARK  144  A    between atoms: _404  and  _406
REMARK  145  A    between atoms: _406  and  _407
REMARK  146  A    between atoms: _406  and  _409
REMARK  147  A    between atoms: _409  and  _410
REMARK  148  A    between atoms: _415  and  _417
REMARK  149  A    between atoms: _417  and  _418
REMARK  150  A    between atoms: _417  and  _420
REMARK  151  A    between atoms: _420  and  _421
REMARK  152  A    between atoms: _421  and  _422
REMARK  153  A    between atoms: _422  and  _423
REMARK                            x       y       z     vdW  Elec       q    Type
REMARK                         _______ _______ _______ _____ _____    ______ ____
ROOT
ATOM      1  O   HOH     1      14.112   5.814   6.520  0.00  0.00    +0.000 OA
ENDROOT
TORSDOF 0
REMARK  Name = ../refined-set-2016/3s71/3s71_pocket.pdb
REMARK  153 active torsions:
REMARK  status: ('A' for Active; 'I' for Inactive)
REMARK    1  A    between atoms: _1  and  _5
REMARK    2  A    between atoms: _5  and  _6
REMARK    3  A    between atoms: _5  and  _8
REMARK    4  A    between atoms: _8  and  _9
REMARK    5  A    between atoms: _14  and  _16
REMARK    6  A    between atoms: _16  and  _17
REMARK    7  A    between atoms: _16  and  _19
REMARK    8  A    between atoms: _19  and  _20
REMARK    9  A    between atoms: _30  and  _32
REMARK   10  A    between atoms: _32  and  _33
REMARK   11  A    between atoms: _32  and  _35
REMARK   12  A    between atoms: _35  and  _36
REMARK   13  A    between atoms: _41  and  _42
REMARK   14  A    between atoms: _44  and  _46
REMARK   15  A    between atoms: _46  and  _47
REMARK   16  A    between atoms: _46  and  _49
REMARK   17  A    between atoms: _49  and  _50
REMARK   18  A    between atoms: _53  and  _54
REMARK   19  A    between atoms: _59  and  _61
REMARK   20  A    between atoms: _61  and  _62
REMARK   21  A    between atoms: _61  and  _64
REMARK   22  A    between atoms: _64  and  _65
REMARK   23  A    between atoms: _70  and  _72
REMARK   24  A    between atoms: _72  and  _73
REMARK   25  A    between atoms: _72  and  _75
REMARK   26  A    between atoms: _75  and  _76
REMARK   27  A    between atoms: _81  and  _83
REMARK   28  A    between atoms: _83  and  _84
REMARK   29  A    between atoms: _87  and  _89
REMARK   30  A    between atoms: _89  and  _90
REMARK   31  A    between atoms: _89  and  _92
REMARK   32  A    between atoms: _92  and  _93
REMARK   33  A    between atoms: _98  and  _100
REMARK   34  A    between atoms: _100  and  _101
REMARK   35  A    between atoms: _100  and  _103
REMARK   36  A    between atoms: _103  and  _104
REMARK   37  A    between atoms: _107  and  _109
REMARK   38  A    between atoms: _109  and  _110
REMARK   39  A    between atoms: _109  and  _112
REMARK   40  A    between atoms: _112  and  _113
REMARK   41  A    between atoms: _113  and  _114
REMARK   42  A    between atoms: _119  and  _121
REMARK   43  A    between atoms: _121  and  _122
REMARK   44  A    between atoms: _121  and  _124
REMARK   45  A    between atoms: _124  and  _125
REMARK   46  A    between atoms: _131  and  _133
REMARK   47  A    between atoms: _144  and  _147
REMARK   48  A    between atoms: _147  and  _148
REMARK   49  A    between atoms: _156  and  _157
REMARK   50  A    between atoms: _165  and  _167
REMARK   51  A    between atoms: _167  and  _168
REMARK   52  A    between atoms: _167  and  _170
REMARK   53  A    between atoms: _170  and  _171
REMARK   54  A    between atoms: _171  and  _172
REMARK   55  A    between atoms: _175  and  _177
REMARK   56  A    between atoms: _177  and  _178
REMARK   57  A    between atoms: _177  and  _180
REMARK   58  A    between atoms: _180  and  _181
REMARK   59  A    between atoms: _186  and  _188
REMARK   60  A    between atoms: _188  and  _189
REMARK   61  A    between atoms: _188  and  _191
REMARK   62  A    between atoms: _191  and  _192
REMARK   63  A    between atoms: _192  and  _193
REMARK   64  A    between atoms: _196  and  _198
REMARK   65  A    between atoms: _198  and  _199
REMARK   66  A    between atoms: _198  and  _201
REMARK   67  A    between atoms: _201  and  _202
REMARK   68  A    between atoms: _205  and  _207
REMARK   69  A    between atoms: _207  and  _208
REMARK   70  A    between atoms: _207  and  _210
REMARK   71  A    between atoms: _210  and  _211
REMARK   72  A    between atoms: _212  and  ZN_432
REMARK   73  A    between atoms: _216  and  _218
REMARK   74  A    between atoms: _218  and  _219
REMARK   75  A    between atoms: _218  and  _221
REMARK   76  A    between atoms: _221  and  _222
REMARK   77  A    between atoms: _225  and  _227
REMARK   78  A    between atoms: _227  and  _228
REMARK   79  A    between atoms: _227  and  _230
REMARK   80  A    between atoms: _233  and  _235
REMARK   81  A    between atoms: _235  and  _236
REMARK   82  A    between atoms: _235  and  _238
REMARK   83  A    between atoms: _238  and  _239
REMARK   84  A    between atoms: _244  and  _246
REMARK   85  A    between atoms: _246  and  _247
REMARK   86  A    between atoms: _246  and  _249
REMARK   87  A    between atoms: _249  and  _250
REMARK   88  A    between atoms: _256  and  _258
REMARK   89  A    between atoms: _258  and  _259
REMARK   90  A    between atoms: _258  and  _261
REMARK   91  A    between atoms: _264  and  _266
REMARK   92  A    between atoms: _266  and  _267
REMARK   93  A    between atoms: _266  and  _269
REMARK   94  A    between atoms: _269  and  _270
REMARK   95  A    between atoms: _273  and  _275
REMARK   96  A    between atoms: _275  and  _276
REMARK   97  A    between atoms: _279  and  _281
REMARK   98  A    between atoms: _281  and  _282
REMARK   99  A    between atoms: _281  and  _284
REMARK  100  A    between atoms: _287  and  _289
REMARK  101  A    between atoms: _289  and  _290
REMARK  102  A    between atoms: _289  and  _292
REMARK  103  A    between atoms: _292  and  _293
REMARK  104  A    between atoms: _296  and  _298
REMARK  105  A    between atoms: _298  and  _299
REMARK  106  A    between atoms: _301  and  _303
REMARK  107  A    between atoms: _303  and  _304
REMARK  108  A    between atoms: _306  and  _308
REMARK  109  A    between atoms: _308  and  _309
REMARK  110  A    between atoms: _308  and  _311
REMARK  111  A    between atoms: _311  and  _312
REMARK  112  A    between atoms: _314  and  _316
REMARK  113  A    between atoms: _316  and  _317
REMARK  114  A    between atoms: _316  and  _319
REMARK  115  A    between atoms: _319  and  _320
REMARK  116  A    between atoms: _323  and  _325
REMARK  117  A    between atoms: _325  and  _326
REMARK  118  A    between atoms: _325  and  _328
REMARK  119  A    between atoms: _328  and  _329
REMARK  120  A    between atoms: _332  and  _334
REMARK  121  A    between atoms: _334  and  _335
REMARK  122  A    between atoms: _334  and  _337
REMARK  123  A    between atoms: _337  and  _338
REMARK  124  A    between atoms: _342  and  _343
REMARK  125  A    between atoms: _349  and  _350
REMARK  126  A    between atoms: _355  and  _357
REMARK  127  A    between atoms: _357  and  _358
REMARK  128  A    between atoms: _357  and  _360
REMARK  129  A    between atoms: _360  and  _361
REMARK  130  A    between atoms: _364  and  _366
REMARK  131  A    between atoms: _366  and  _367
REMARK  132  A    between atoms: _366  and  _369
REMARK  133  A    between atoms: _369  and  _370
REMARK  134  A    between atoms: _373  and  _375
REMARK  135  A    between atoms: _375  and  _376
REMARK  136  A    between atoms: _375  and  _378
REMARK  137  A    between atoms: _380  and  _382
REMARK  138  A    between atoms: _382  and  _383
REMARK  139  A    between atoms: _382  and  _385
REMARK  140  A    between atoms: _388  and  _390
REMARK  141  A    between atoms: _390  and  _391
REMARK  142  A    between atoms: _390  and  _393
REMARK  143  A    between atoms: _393  and  _394
REMARK  144  A    between atoms: _404  and  _406
REMARK  145  A    between atoms: _406  and  _407
REMARK  146  A    between atoms: _406  and  _409
REMARK  147  A    between atoms: _409  and  _410
REMARK  148  A    between atoms: _415  and  _417
REMARK  149  A    between atoms: _417  and  _418
REMARK  150  A    between atoms: _417  and  _420
REMARK  151  A    between atoms: _420  and  _421
REMARK  152  A    between atoms: _421  and  _422
REMARK  153  A    between atoms: _422  and  _423
REMARK                            x       y       z     vdW  Elec       q    Type
REMARK                         _______ _______ _______ _____ _____    ______ ____
ROOT
ATOM      1  O   HOH     1      13.178   7.579   8.462  0.00  0.00    +0.000 OA
ENDROOT
TORSDOF 0
