REMARK  Name = ../refined-set-2016/4j48/4j48_pocket.pdb
REMARK  108 active torsions:
REMARK  status: ('A' for Active; 'I' for Inactive)
REMARK    1  A    between atoms: _1  and  _3
REMARK    2  A    between atoms: _3  and  _4
REMARK    3  A    between atoms: _3  and  _6
REMARK    4  A    between atoms: _6  and  _7
REMARK    5  A    between atoms: _10  and  _12
REMARK    6  A    between atoms: _12  and  _13
REMARK    7  A    between atoms: _12  and  _15
REMARK    8  A    between atoms: _15  and  _16
REMARK    9  A    between atoms: _19  and  _21
REMARK   10  A    between atoms: _21  and  _22
REMARK   11  A    between atoms: _21  and  _24
REMARK   12  A    between atoms: _24  and  _25
REMARK   13  A    between atoms: _28  and  _30
REMARK   14  A    between atoms: _30  and  _31
REMARK   15  A    between atoms: _30  and  _33
REMARK   16  A    between atoms: _33  and  _34
REMARK   17  A    between atoms: _37  and  _39
REMARK   18  A    between atoms: _39  and  _40
REMARK   19  A    between atoms: _39  and  _42
REMARK   20  A    between atoms: _42  and  _43
REMARK   21  A    between atoms: _46  and  _48
REMARK   22  A    between atoms: _48  and  _49
REMARK   23  A    between atoms: _48  and  _51
REMARK   24  A    between atoms: _51  and  _52
REMARK   25  A    between atoms: _52  and  _53
REMARK   26  A    between atoms: _58  and  _60
REMARK   27  A    between atoms: _60  and  _61
REMARK   28  A    between atoms: _60  and  _63
REMARK   29  A    between atoms: _66  and  _68
REMARK   30  A    between atoms: _68  and  _69
REMARK   31  A    between atoms: _68  and  _71
REMARK   32  A    between atoms: _71  and  _72
REMARK   33  A    between atoms: _72  and  _73
REMARK   34  A    between atoms: _78  and  _80
REMARK   35  A    between atoms: _80  and  _81
REMARK   36  A    between atoms: _83  and  _85
REMARK   37  A    between atoms: _85  and  _86
REMARK   38  A    between atoms: _85  and  _88
REMARK   39  A    between atoms: _88  and  _89
REMARK   40  A    between atoms: _89  and  _90
REMARK   41  A    between atoms: _90  and  _91
REMARK   42  A    between atoms: _91  and  _92
REMARK   43  A    between atoms: _96  and  _98
REMARK   44  A    between atoms: _98  and  _99
REMARK   45  A    between atoms: _98  and  _101
REMARK   46  A    between atoms: _101  and  _102
REMARK   47  A    between atoms: _105  and  _107
REMARK   48  A    between atoms: _107  and  _108
REMARK   49  A    between atoms: _107  and  _110
REMARK   50  A    between atoms: _110  and  _111
REMARK   51  A    between atoms: _111  and  _112
REMARK   52  A    between atoms: _112  and  _113
REMARK   53  A    between atoms: _113  and  _114
REMARK   54  A    between atoms: _118  and  _120
REMARK   55  A    between atoms: _120  and  _121
REMARK   56  A    between atoms: _120  and  _123
REMARK   57  A    between atoms: _123  and  _124
REMARK   58  A    between atoms: _129  and  _131
REMARK   59  A    between atoms: _131  and  _132
REMARK   60  A    between atoms: _131  and  _134
REMARK   61  A    between atoms: _134  and  _135
REMARK   62  A    between atoms: _145  and  _147
REMARK   63  A    between atoms: _147  and  _148
REMARK   64  A    between atoms: _147  and  _150
REMARK   65  A    between atoms: _150  and  _151
REMARK   66  A    between atoms: _151  and  _152
REMARK   67  A    between atoms: _156  and  _157
REMARK   68  A    between atoms: _162  and  _164
REMARK   69  A    between atoms: _164  and  _165
REMARK   70  A    between atoms: _167  and  _169
REMARK   71  A    between atoms: _169  and  _170
REMARK   72  A    between atoms: _169  and  _172
REMARK   73  A    between atoms: _172  and  _173
REMARK   74  A    between atoms: _176  and  _178
REMARK   75  A    between atoms: _178  and  _179
REMARK   76  A    between atoms: _178  and  _181
REMARK   77  A    between atoms: _181  and  _182
REMARK   78  A    between atoms: _182  and  _183
REMARK   79  A    between atoms: _183  and  _184
REMARK   80  A    between atoms: _193  and  _195
REMARK   81  A    between atoms: _195  and  _196
REMARK   82  A    between atoms: _199  and  _201
REMARK   83  A    between atoms: _201  and  _202
REMARK   84  A    between atoms: _201  and  _204
REMARK   85  A    between atoms: _204  and  _205
REMARK   86  A    between atoms: _207  and  _209
REMARK   87  A    between atoms: _209  and  _210
REMARK   88  A    between atoms: _209  and  _212
REMARK   89  A    between atoms: _212  and  _213
REMARK   90  A    between atoms: _213  and  _214
REMARK   91  A    between atoms: _217  and  _219
REMARK   92  A    between atoms: _219  and  _220
REMARK   93  A    between atoms: _219  and  _222
REMARK   94  A    between atoms: _222  and  _223
REMARK   95  A    between atoms: _228  and  _230
REMARK   96  A    between atoms: _230  and  _231
REMARK   97  A    between atoms: _230  and  _233
REMARK   98  A    between atoms: _233  and  _234
REMARK   99  A    between atoms: _234  and  _235
REMARK  100  A    between atoms: _235  and  _236
REMARK  101  A    between atoms: _245  and  _247
REMARK  102  A    between atoms: _247  and  _248
REMARK  103  A    between atoms: _247  and  _250
REMARK  104  A    between atoms: _250  and  _251
REMARK  105  A    between atoms: _256  and  _258
REMARK  106  A    between atoms: _258  and  _259
REMARK  107  A    between atoms: _258  and  _261
REMARK  108  A    between atoms: _261  and  _262
REMARK                            x       y       z     vdW  Elec       q    Type
REMARK                         _______ _______ _______ _____ _____    ______ ____
ROOT
ATOM      1  CA  LEU A   1     -44.323 -16.959 -11.469  0.00  0.00    +0.133 C 
ENDROOT
BRANCH   1   2
ATOM      2  N   LEU A   1     -45.319 -18.050 -11.401  0.00  0.00    -0.239 NA
ATOM      3  H   LEU A   1     -45.031 -19.037 -11.555  0.00  0.00    +0.142 HD
ENDBRANCH   1   2
BRANCH   1   4
ATOM      4  C   LEU A   1     -44.556 -16.087 -12.712  0.00  0.00    +0.224 C 
ATOM      5  O   LEU A   1     -45.046 -16.561 -13.738  0.00  0.00    -0.287 OA
ENDBRANCH   1   4
BRANCH   1   6
ATOM      6  CB  LEU A   1     -42.856 -17.456 -11.427  0.00  0.00    +0.025 C 
BRANCH   6   7
ATOM      7  CG  LEU A   1     -42.260 -17.395 -10.023  0.00  0.00    +0.002 C 
ATOM      8  CD2 LEU A   1     -42.780 -18.574  -9.246  0.00  0.00    +0.000 C 
ATOM      9  CD1 LEU A   1     -40.757 -17.484 -10.024  0.00  0.00    +0.000 C 
ENDBRANCH   6   7
ENDBRANCH   1   6
TORSDOF 4
REMARK  Name = ../refined-set-2016/4j48/4j48_pocket.pdb
REMARK  108 active torsions:
REMARK  status: ('A' for Active; 'I' for Inactive)
REMARK    1  A    between atoms: _1  and  _3
REMARK    2  A    between atoms: _3  and  _4
REMARK    3  A    between atoms: _3  and  _6
REMARK    4  A    between atoms: _6  and  _7
REMARK    5  A    between atoms: _10  and  _12
REMARK    6  A    between atoms: _12  and  _13
REMARK    7  A    between atoms: _12  and  _15
REMARK    8  A    between atoms: _15  and  _16
REMARK    9  A    between atoms: _19  and  _21
REMARK   10  A    between atoms: _21  and  _22
REMARK   11  A    between atoms: _21  and  _24
REMARK   12  A    between atoms: _24  and  _25
REMARK   13  A    between atoms: _28  and  _30
REMARK   14  A    between atoms: _30  and  _31
REMARK   15  A    between atoms: _30  and  _33
REMARK   16  A    between atoms: _33  and  _34
REMARK   17  A    between atoms: _37  and  _39
REMARK   18  A    between atoms: _39  and  _40
REMARK   19  A    between atoms: _39  and  _42
REMARK   20  A    between atoms: _42  and  _43
REMARK   21  A    between atoms: _46  and  _48
REMARK   22  A    between atoms: _48  and  _49
REMARK   23  A    between atoms: _48  and  _51
REMARK   24  A    between atoms: _51  and  _52
REMARK   25  A    between atoms: _52  and  _53
REMARK   26  A    between atoms: _58  and  _60
REMARK   27  A    between atoms: _60  and  _61
REMARK   28  A    between atoms: _60  and  _63
REMARK   29  A    between atoms: _66  and  _68
REMARK   30  A    between atoms: _68  and  _69
REMARK   31  A    between atoms: _68  and  _71
REMARK   32  A    between atoms: _71  and  _72
REMARK   33  A    between atoms: _72  and  _73
REMARK   34  A    between atoms: _78  and  _80
REMARK   35  A    between atoms: _80  and  _81
REMARK   36  A    between atoms: _83  and  _85
REMARK   37  A    between atoms: _85  and  _86
REMARK   38  A    between atoms: _85  and  _88
REMARK   39  A    between atoms: _88  and  _89
REMARK   40  A    between atoms: _89  and  _90
REMARK   41  A    between atoms: _90  and  _91
REMARK   42  A    between atoms: _91  and  _92
REMARK   43  A    between atoms: _96  and  _98
REMARK   44  A    between atoms: _98  and  _99
REMARK   45  A    between atoms: _98  and  _101
REMARK   46  A    between atoms: _101  and  _102
REMARK   47  A    between atoms: _105  and  _107
REMARK   48  A    between atoms: _107  and  _108
REMARK   49  A    between atoms: _107  and  _110
REMARK   50  A    between atoms: _110  and  _111
REMARK   51  A    between atoms: _111  and  _112
REMARK   52  A    between atoms: _112  and  _113
REMARK   53  A    between atoms: _113  and  _114
REMARK   54  A    between atoms: _118  and  _120
REMARK   55  A    between atoms: _120  and  _121
REMARK   56  A    between atoms: _120  and  _123
REMARK   57  A    between atoms: _123  and  _124
REMARK   58  A    between atoms: _129  and  _131
REMARK   59  A    between atoms: _131  and  _132
REMARK   60  A    between atoms: _131  and  _134
REMARK   61  A    between atoms: _134  and  _135
REMARK   62  A    between atoms: _145  and  _147
REMARK   63  A    between atoms: _147  and  _148
REMARK   64  A    between atoms: _147  and  _150
REMARK   65  A    between atoms: _150  and  _151
REMARK   66  A    between atoms: _151  and  _152
REMARK   67  A    between atoms: _156  and  _157
REMARK   68  A    between atoms: _162  and  _164
REMARK   69  A    between atoms: _164  and  _165
REMARK   70  A    between atoms: _167  and  _169
REMARK   71  A    between atoms: _169  and  _170
REMARK   72  A    between atoms: _169  and  _172
REMARK   73  A    between atoms: _172  and  _173
REMARK   74  A    between atoms: _176  and  _178
REMARK   75  A    between atoms: _178  and  _179
REMARK   76  A    between atoms: _178  and  _181
REMARK   77  A    between atoms: _181  and  _182
REMARK   78  A    between atoms: _182  and  _183
REMARK   79  A    between atoms: _183  and  _184
REMARK   80  A    between atoms: _193  and  _195
REMARK   81  A    between atoms: _195  and  _196
REMARK   82  A    between atoms: _199  and  _201
REMARK   83  A    between atoms: _201  and  _202
REMARK   84  A    between atoms: _201  and  _204
REMARK   85  A    between atoms: _204  and  _205
REMARK   86  A    between atoms: _207  and  _209
REMARK   87  A    between atoms: _209  and  _210
REMARK   88  A    between atoms: _209  and  _212
REMARK   89  A    between atoms: _212  and  _213
REMARK   90  A    between atoms: _213  and  _214
REMARK   91  A    between atoms: _217  and  _219
REMARK   92  A    between atoms: _219  and  _220
REMARK   93  A    between atoms: _219  and  _222
REMARK   94  A    between atoms: _222  and  _223
REMARK   95  A    between atoms: _228  and  _230
REMARK   96  A    between atoms: _230  and  _231
REMARK   97  A    between atoms: _230  and  _233
REMARK   98  A    between atoms: _233  and  _234
REMARK   99  A    between atoms: _234  and  _235
REMARK  100  A    between atoms: _235  and  _236
REMARK  101  A    between atoms: _245  and  _247
REMARK  102  A    between atoms: _247  and  _248
REMARK  103  A    between atoms: _247  and  _250
REMARK  104  A    between atoms: _250  and  _251
REMARK  105  A    between atoms: _256  and  _258
REMARK  106  A    between atoms: _258  and  _259
REMARK  107  A    between atoms: _258  and  _261
REMARK  108  A    between atoms: _261  and  _262
REMARK                            x       y       z     vdW  Elec       q    Type
REMARK                         _______ _______ _______ _____ _____    ______ ____
ROOT
ATOM      1  CA  LEU A   1     -38.300 -14.650 -14.428  0.00  0.00    +0.133 C 
ENDROOT
BRANCH   1   2
ATOM      2  N   LEU A   1     -39.188 -13.659 -13.818  0.00  0.00    -0.239 NA
ATOM      3  H   LEU A   1     -40.203 -13.683 -14.042  0.00  0.00    +0.142 HD
ENDBRANCH   1   2
BRANCH   1   4
ATOM      4  C   LEU A   1     -37.260 -14.034 -15.351  0.00  0.00    +0.224 C 
ATOM      5  O   LEU A   1     -36.072 -14.345 -15.249  0.00  0.00    -0.287 OA
ENDBRANCH   1   4
BRANCH   1   6
ATOM      6  CB  LEU A   1     -39.104 -15.703 -15.190  0.00  0.00    +0.025 C 
BRANCH   6   7
ATOM      7  CG  LEU A   1     -39.992 -16.567 -14.265  0.00  0.00    +0.002 C 
ATOM      8  CD2 LEU A   1     -39.147 -17.654 -13.643  0.00  0.00    +0.000 C 
ATOM      9  CD1 LEU A   1     -41.198 -17.175 -14.999  0.00  0.00    +0.000 C 
ENDBRANCH   6   7
ENDBRANCH   1   6
TORSDOF 4
REMARK  Name = ../refined-set-2016/4j48/4j48_pocket.pdb
REMARK  108 active torsions:
REMARK  status: ('A' for Active; 'I' for Inactive)
REMARK    1  A    between atoms: _1  and  _3
REMARK    2  A    between atoms: _3  and  _4
REMARK    3  A    between atoms: _3  and  _6
REMARK    4  A    between atoms: _6  and  _7
REMARK    5  A    between atoms: _10  and  _12
REMARK    6  A    between atoms: _12  and  _13
REMARK    7  A    between atoms: _12  and  _15
REMARK    8  A    between atoms: _15  and  _16
REMARK    9  A    between atoms: _19  and  _21
REMARK   10  A    between atoms: _21  and  _22
REMARK   11  A    between atoms: _21  and  _24
REMARK   12  A    between atoms: _24  and  _25
REMARK   13  A    between atoms: _28  and  _30
REMARK   14  A    between atoms: _30  and  _31
REMARK   15  A    between atoms: _30  and  _33
REMARK   16  A    between atoms: _33  and  _34
REMARK   17  A    between atoms: _37  and  _39
REMARK   18  A    between atoms: _39  and  _40
REMARK   19  A    between atoms: _39  and  _42
REMARK   20  A    between atoms: _42  and  _43
REMARK   21  A    between atoms: _46  and  _48
REMARK   22  A    between atoms: _48  and  _49
REMARK   23  A    between atoms: _48  and  _51
REMARK   24  A    between atoms: _51  and  _52
REMARK   25  A    between atoms: _52  and  _53
REMARK   26  A    between atoms: _58  and  _60
REMARK   27  A    between atoms: _60  and  _61
REMARK   28  A    between atoms: _60  and  _63
REMARK   29  A    between atoms: _66  and  _68
REMARK   30  A    between atoms: _68  and  _69
REMARK   31  A    between atoms: _68  and  _71
REMARK   32  A    between atoms: _71  and  _72
REMARK   33  A    between atoms: _72  and  _73
REMARK   34  A    between atoms: _78  and  _80
REMARK   35  A    between atoms: _80  and  _81
REMARK   36  A    between atoms: _83  and  _85
REMARK   37  A    between atoms: _85  and  _86
REMARK   38  A    between atoms: _85  and  _88
REMARK   39  A    between atoms: _88  and  _89
REMARK   40  A    between atoms: _89  and  _90
REMARK   41  A    between atoms: _90  and  _91
REMARK   42  A    between atoms: _91  and  _92
REMARK   43  A    between atoms: _96  and  _98
REMARK   44  A    between atoms: _98  and  _99
REMARK   45  A    between atoms: _98  and  _101
REMARK   46  A    between atoms: _101  and  _102
REMARK   47  A    between atoms: _105  and  _107
REMARK   48  A    between atoms: _107  and  _108
REMARK   49  A    between atoms: _107  and  _110
REMARK   50  A    between atoms: _110  and  _111
REMARK   51  A    between atoms: _111  and  _112
REMARK   52  A    between atoms: _112  and  _113
REMARK   53  A    between atoms: _113  and  _114
REMARK   54  A    between atoms: _118  and  _120
REMARK   55  A    between atoms: _120  and  _121
REMARK   56  A    between atoms: _120  and  _123
REMARK   57  A    between atoms: _123  and  _124
REMARK   58  A    between atoms: _129  and  _131
REMARK   59  A    between atoms: _131  and  _132
REMARK   60  A    between atoms: _131  and  _134
REMARK   61  A    between atoms: _134  and  _135
REMARK   62  A    between atoms: _145  and  _147
REMARK   63  A    between atoms: _147  and  _148
REMARK   64  A    between atoms: _147  and  _150
REMARK   65  A    between atoms: _150  and  _151
REMARK   66  A    between atoms: _151  and  _152
REMARK   67  A    between atoms: _156  and  _157
REMARK   68  A    between atoms: _162  and  _164
REMARK   69  A    between atoms: _164  and  _165
REMARK   70  A    between atoms: _167  and  _169
REMARK   71  A    between atoms: _169  and  _170
REMARK   72  A    between atoms: _169  and  _172
REMARK   73  A    between atoms: _172  and  _173
REMARK   74  A    between atoms: _176  and  _178
REMARK   75  A    between atoms: _178  and  _179
REMARK   76  A    between atoms: _178  and  _181
REMARK   77  A    between atoms: _181  and  _182
REMARK   78  A    between atoms: _182  and  _183
REMARK   79  A    between atoms: _183  and  _184
REMARK   80  A    between atoms: _193  and  _195
REMARK   81  A    between atoms: _195  and  _196
REMARK   82  A    between atoms: _199  and  _201
REMARK   83  A    between atoms: _201  and  _202
REMARK   84  A    between atoms: _201  and  _204
REMARK   85  A    between atoms: _204  and  _205
REMARK   86  A    between atoms: _207  and  _209
REMARK   87  A    between atoms: _209  and  _210
REMARK   88  A    between atoms: _209  and  _212
REMARK   89  A    between atoms: _212  and  _213
REMARK   90  A    between atoms: _213  and  _214
REMARK   91  A    between atoms: _217  and  _219
REMARK   92  A    between atoms: _219  and  _220
REMARK   93  A    between atoms: _219  and  _222
REMARK   94  A    between atoms: _222  and  _223
REMARK   95  A    between atoms: _228  and  _230
REMARK   96  A    between atoms: _230  and  _231
REMARK   97  A    between atoms: _230  and  _233
REMARK   98  A    between atoms: _233  and  _234
REMARK   99  A    between atoms: _234  and  _235
REMARK  100  A    between atoms: _235  and  _236
REMARK  101  A    between atoms: _245  and  _247
REMARK  102  A    between atoms: _247  and  _248
REMARK  103  A    between atoms: _247  and  _250
REMARK  104  A    between atoms: _250  and  _251
REMARK  105  A    between atoms: _256  and  _258
REMARK  106  A    between atoms: _258  and  _259
REMARK  107  A    between atoms: _258  and  _261
REMARK  108  A    between atoms: _261  and  _262
REMARK                            x       y       z     vdW  Elec       q    Type
REMARK                         _______ _______ _______ _____ _____    ______ ____
ROOT
ATOM      1  CA  THR A   1     -38.029 -22.910 -23.419  0.00  0.00    +0.160 C 
ENDROOT
BRANCH   1   2
ATOM      2  N   THR A   1     -38.480 -21.946 -22.389  0.00  0.00    -0.237 NA
ATOM      3  H   THR A   1     -38.717 -22.289 -21.436  0.00  0.00    +0.142 HD
ENDBRANCH   1   2
BRANCH   1   4
ATOM      4  CB  THR A   1     -37.465 -24.180 -22.749  0.00  0.00    +0.134 C 
ATOM      5  CG2 THR A   1     -36.237 -23.823 -21.894  0.00  0.00    +0.034 C 
BRANCH   4   6
ATOM      6  OG1 THR A   1     -38.480 -24.792 -21.925  0.00  0.00    -0.383 OA
ATOM      7  HG1 THR A   1     -38.766 -24.152 -21.226  0.00  0.00    +0.210 HD
ENDBRANCH   4   6
ENDBRANCH   1   4
BRANCH   1   8
ATOM      8  C   THR A   1     -39.147 -23.324 -24.394  0.00  0.00    +0.227 C 
ATOM      9  O   THR A   1     -38.919 -23.983 -25.395  0.00  0.00    -0.287 OA
ENDBRANCH   1   8
TORSDOF 4
REMARK  Name = ../refined-set-2016/4j48/4j48_pocket.pdb
REMARK  108 active torsions:
REMARK  status: ('A' for Active; 'I' for Inactive)
REMARK    1  A    between atoms: _1  and  _3
REMARK    2  A    between atoms: _3  and  _4
REMARK    3  A    between atoms: _3  and  _6
REMARK    4  A    between atoms: _6  and  _7
REMARK    5  A    between atoms: _10  and  _12
REMARK    6  A    between atoms: _12  and  _13
REMARK    7  A    between atoms: _12  and  _15
REMARK    8  A    between atoms: _15  and  _16
REMARK    9  A    between atoms: _19  and  _21
REMARK   10  A    between atoms: _21  and  _22
REMARK   11  A    between atoms: _21  and  _24
REMARK   12  A    between atoms: _24  and  _25
REMARK   13  A    between atoms: _28  and  _30
REMARK   14  A    between atoms: _30  and  _31
REMARK   15  A    between atoms: _30  and  _33
REMARK   16  A    between atoms: _33  and  _34
REMARK   17  A    between atoms: _37  and  _39
REMARK   18  A    between atoms: _39  and  _40
REMARK   19  A    between atoms: _39  and  _42
REMARK   20  A    between atoms: _42  and  _43
REMARK   21  A    between atoms: _46  and  _48
REMARK   22  A    between atoms: _48  and  _49
REMARK   23  A    between atoms: _48  and  _51
REMARK   24  A    between atoms: _51  and  _52
REMARK   25  A    between atoms: _52  and  _53
REMARK   26  A    between atoms: _58  and  _60
REMARK   27  A    between atoms: _60  and  _61
REMARK   28  A    between atoms: _60  and  _63
REMARK   29  A    between atoms: _66  and  _68
REMARK   30  A    between atoms: _68  and  _69
REMARK   31  A    between atoms: _68  and  _71
REMARK   32  A    between atoms: _71  and  _72
REMARK   33  A    between atoms: _72  and  _73
REMARK   34  A    between atoms: _78  and  _80
REMARK   35  A    between atoms: _80  and  _81
REMARK   36  A    between atoms: _83  and  _85
REMARK   37  A    between atoms: _85  and  _86
REMARK   38  A    between atoms: _85  and  _88
REMARK   39  A    between atoms: _88  and  _89
REMARK   40  A    between atoms: _89  and  _90
REMARK   41  A    between atoms: _90  and  _91
REMARK   42  A    between atoms: _91  and  _92
REMARK   43  A    between atoms: _96  and  _98
REMARK   44  A    between atoms: _98  and  _99
REMARK   45  A    between atoms: _98  and  _101
REMARK   46  A    between atoms: _101  and  _102
REMARK   47  A    between atoms: _105  and  _107
REMARK   48  A    between atoms: _107  and  _108
REMARK   49  A    between atoms: _107  and  _110
REMARK   50  A    between atoms: _110  and  _111
REMARK   51  A    between atoms: _111  and  _112
REMARK   52  A    between atoms: _112  and  _113
REMARK   53  A    between atoms: _113  and  _114
REMARK   54  A    between atoms: _118  and  _120
REMARK   55  A    between atoms: _120  and  _121
REMARK   56  A    between atoms: _120  and  _123
REMARK   57  A    between atoms: _123  and  _124
REMARK   58  A    between atoms: _129  and  _131
REMARK   59  A    between atoms: _131  and  _132
REMARK   60  A    between atoms: _131  and  _134
REMARK   61  A    between atoms: _134  and  _135
REMARK   62  A    between atoms: _145  and  _147
REMARK   63  A    between atoms: _147  and  _148
REMARK   64  A    between atoms: _147  and  _150
REMARK   65  A    between atoms: _150  and  _151
REMARK   66  A    between atoms: _151  and  _152
REMARK   67  A    between atoms: _156  and  _157
REMARK   68  A    between atoms: _162  and  _164
REMARK   69  A    between atoms: _164  and  _165
REMARK   70  A    between atoms: _167  and  _169
REMARK   71  A    between atoms: _169  and  _170
REMARK   72  A    between atoms: _169  and  _172
REMARK   73  A    between atoms: _172  and  _173
REMARK   74  A    between atoms: _176  and  _178
REMARK   75  A    between atoms: _178  and  _179
REMARK   76  A    between atoms: _178  and  _181
REMARK   77  A    between atoms: _181  and  _182
REMARK   78  A    between atoms: _182  and  _183
REMARK   79  A    between atoms: _183  and  _184
REMARK   80  A    between atoms: _193  and  _195
REMARK   81  A    between atoms: _195  and  _196
REMARK   82  A    between atoms: _199  and  _201
REMARK   83  A    between atoms: _201  and  _202
REMARK   84  A    between atoms: _201  and  _204
REMARK   85  A    between atoms: _204  and  _205
REMARK   86  A    between atoms: _207  and  _209
REMARK   87  A    between atoms: _209  and  _210
REMARK   88  A    between atoms: _209  and  _212
REMARK   89  A    between atoms: _212  and  _213
REMARK   90  A    between atoms: _213  and  _214
REMARK   91  A    between atoms: _217  and  _219
REMARK   92  A    between atoms: _219  and  _220
REMARK   93  A    between atoms: _219  and  _222
REMARK   94  A    between atoms: _222  and  _223
REMARK   95  A    between atoms: _228  and  _230
REMARK   96  A    between atoms: _230  and  _231
REMARK   97  A    between atoms: _230  and  _233
REMARK   98  A    between atoms: _233  and  _234
REMARK   99  A    between atoms: _234  and  _235
REMARK  100  A    between atoms: _235  and  _236
REMARK  101  A    between atoms: _245  and  _247
REMARK  102  A    between atoms: _247  and  _248
REMARK  103  A    between atoms: _247  and  _250
REMARK  104  A    between atoms: _250  and  _251
REMARK  105  A    between atoms: _256  and  _258
REMARK  106  A    between atoms: _258  and  _259
REMARK  107  A    between atoms: _258  and  _261
REMARK  108  A    between atoms: _261  and  _262
REMARK                            x       y       z     vdW  Elec       q    Type
REMARK                         _______ _______ _______ _____ _____    ______ ____
ROOT
ATOM      1  CA  ILE A   1     -41.904 -26.724 -22.889  0.00  0.00    +0.133 C 
ENDROOT
BRANCH   1   2
ATOM      2  N   ILE A   1     -41.476 -25.391 -23.372  0.00  0.00    -0.239 NA
ATOM      3  H   ILE A   1     -40.671 -24.934 -22.898  0.00  0.00    +0.142 HD
ENDBRANCH   1   2
BRANCH   1   4
ATOM      4  C   ILE A   1     -42.352 -26.606 -21.401  0.00  0.00    +0.224 C 
ATOM      5  O   ILE A   1     -41.566 -26.178 -20.568  0.00  0.00    -0.287 OA
ENDBRANCH   1   4
BRANCH   1   6
ATOM      6  CB  ILE A   1     -40.732 -27.719 -23.022  0.00  0.00    +0.023 C 
ATOM      7  CG2 ILE A   1     -41.075 -29.075 -22.418  0.00  0.00    +0.002 C 
BRANCH   6   8
ATOM      8  CG1 ILE A   1     -40.349 -27.890 -24.484  0.00  0.00    +0.002 C 
ATOM      9  CD1 ILE A   1     -38.867 -28.148 -24.681  0.00  0.00    +0.000 C 
ENDBRANCH   6   8
ENDBRANCH   1   6
TORSDOF 4
REMARK  Name = ../refined-set-2016/4j48/4j48_pocket.pdb
REMARK  108 active torsions:
REMARK  status: ('A' for Active; 'I' for Inactive)
REMARK    1  A    between atoms: _1  and  _3
REMARK    2  A    between atoms: _3  and  _4
REMARK    3  A    between atoms: _3  and  _6
REMARK    4  A    between atoms: _6  and  _7
REMARK    5  A    between atoms: _10  and  _12
REMARK    6  A    between atoms: _12  and  _13
REMARK    7  A    between atoms: _12  and  _15
REMARK    8  A    between atoms: _15  and  _16
REMARK    9  A    between atoms: _19  and  _21
REMARK   10  A    between atoms: _21  and  _22
REMARK   11  A    between atoms: _21  and  _24
REMARK   12  A    between atoms: _24  and  _25
REMARK   13  A    between atoms: _28  and  _30
REMARK   14  A    between atoms: _30  and  _31
REMARK   15  A    between atoms: _30  and  _33
REMARK   16  A    between atoms: _33  and  _34
REMARK   17  A    between atoms: _37  and  _39
REMARK   18  A    between atoms: _39  and  _40
REMARK   19  A    between atoms: _39  and  _42
REMARK   20  A    between atoms: _42  and  _43
REMARK   21  A    between atoms: _46  and  _48
REMARK   22  A    between atoms: _48  and  _49
REMARK   23  A    between atoms: _48  and  _51
REMARK   24  A    between atoms: _51  and  _52
REMARK   25  A    between atoms: _52  and  _53
REMARK   26  A    between atoms: _58  and  _60
REMARK   27  A    between atoms: _60  and  _61
REMARK   28  A    between atoms: _60  and  _63
REMARK   29  A    between atoms: _66  and  _68
REMARK   30  A    between atoms: _68  and  _69
REMARK   31  A    between atoms: _68  and  _71
REMARK   32  A    between atoms: _71  and  _72
REMARK   33  A    between atoms: _72  and  _73
REMARK   34  A    between atoms: _78  and  _80
REMARK   35  A    between atoms: _80  and  _81
REMARK   36  A    between atoms: _83  and  _85
REMARK   37  A    between atoms: _85  and  _86
REMARK   38  A    between atoms: _85  and  _88
REMARK   39  A    between atoms: _88  and  _89
REMARK   40  A    between atoms: _89  and  _90
REMARK   41  A    between atoms: _90  and  _91
REMARK   42  A    between atoms: _91  and  _92
REMARK   43  A    between atoms: _96  and  _98
REMARK   44  A    between atoms: _98  and  _99
REMARK   45  A    between atoms: _98  and  _101
REMARK   46  A    between atoms: _101  and  _102
REMARK   47  A    between atoms: _105  and  _107
REMARK   48  A    between atoms: _107  and  _108
REMARK   49  A    between atoms: _107  and  _110
REMARK   50  A    between atoms: _110  and  _111
REMARK   51  A    between atoms: _111  and  _112
REMARK   52  A    between atoms: _112  and  _113
REMARK   53  A    between atoms: _113  and  _114
REMARK   54  A    between atoms: _118  and  _120
REMARK   55  A    between atoms: _120  and  _121
REMARK   56  A    between atoms: _120  and  _123
REMARK   57  A    between atoms: _123  and  _124
REMARK   58  A    between atoms: _129  and  _131
REMARK   59  A    between atoms: _131  and  _132
REMARK   60  A    between atoms: _131  and  _134
REMARK   61  A    between atoms: _134  and  _135
REMARK   62  A    between atoms: _145  and  _147
REMARK   63  A    between atoms: _147  and  _148
REMARK   64  A    between atoms: _147  and  _150
REMARK   65  A    between atoms: _150  and  _151
REMARK   66  A    between atoms: _151  and  _152
REMARK   67  A    between atoms: _156  and  _157
REMARK   68  A    between atoms: _162  and  _164
REMARK   69  A    between atoms: _164  and  _165
REMARK   70  A    between atoms: _167  and  _169
REMARK   71  A    between atoms: _169  and  _170
REMARK   72  A    between atoms: _169  and  _172
REMARK   73  A    between atoms: _172  and  _173
REMARK   74  A    between atoms: _176  and  _178
REMARK   75  A    between atoms: _178  and  _179
REMARK   76  A    between atoms: _178  and  _181
REMARK   77  A    between atoms: _181  and  _182
REMARK   78  A    between atoms: _182  and  _183
REMARK   79  A    between atoms: _183  and  _184
REMARK   80  A    between atoms: _193  and  _195
REMARK   81  A    between atoms: _195  and  _196
REMARK   82  A    between atoms: _199  and  _201
REMARK   83  A    between atoms: _201  and  _202
REMARK   84  A    between atoms: _201  and  _204
REMARK   85  A    between atoms: _204  and  _205
REMARK   86  A    between atoms: _207  and  _209
REMARK   87  A    between atoms: _209  and  _210
REMARK   88  A    between atoms: _209  and  _212
REMARK   89  A    between atoms: _212  and  _213
REMARK   90  A    between atoms: _213  and  _214
REMARK   91  A    between atoms: _217  and  _219
REMARK   92  A    between atoms: _219  and  _220
REMARK   93  A    between atoms: _219  and  _222
REMARK   94  A    between atoms: _222  and  _223
REMARK   95  A    between atoms: _228  and  _230
REMARK   96  A    between atoms: _230  and  _231
REMARK   97  A    between atoms: _230  and  _233
REMARK   98  A    between atoms: _233  and  _234
REMARK   99  A    between atoms: _234  and  _235
REMARK  100  A    between atoms: _235  and  _236
REMARK  101  A    between atoms: _245  and  _247
REMARK  102  A    between atoms: _247  and  _248
REMARK  103  A    between atoms: _247  and  _250
REMARK  104  A    between atoms: _250  and  _251
REMARK  105  A    between atoms: _256  and  _258
REMARK  106  A    between atoms: _258  and  _259
REMARK  107  A    between atoms: _258  and  _261
REMARK  108  A    between atoms: _261  and  _262
REMARK                            x       y       z     vdW  Elec       q    Type
REMARK                         _______ _______ _______ _____ _____    ______ ____
ROOT
ATOM      1  C   GLN A   2     -38.694 -23.684 -18.597  0.00  0.00    +0.241 C 
ATOM      2  N   VAL A   3     -37.816 -23.099 -17.804  0.00  0.00    -0.297 N 
ATOM      3  H   VAL A   3     -37.640 -23.504 -16.863  0.00  0.00    +0.150 HD
ATOM      4  O   GLN A   2     -38.968 -23.271 -19.732  0.00  0.00    -0.273 OA
ENDROOT
BRANCH   1   5
ATOM      5  CA  GLN A   2     -39.332 -24.969 -18.022  0.00  0.00    +0.149 C 
BRANCH   5   8
ATOM      6  C   ASP A   1     -41.430 -24.373 -16.965  0.00  0.00    +0.239 C 
ATOM      7  O   ASP A   1     -40.912 -23.853 -15.975  0.00  0.00    -0.274 OA
ATOM      8  N   GLN A   2     -40.742 -24.869 -18.010  0.00  0.00    -0.297 N 
ATOM      9  H   GLN A   2     -41.271 -25.193 -18.845  0.00  0.00    +0.150 HD
BRANCH   6  10
ATOM     10  CA  ASP A   1     -42.951 -24.447 -17.073  0.00  0.00    +0.156 C 
BRANCH  10  11
ATOM     11  N   ASP A   1     -43.314 -25.673 -17.790  0.00  0.00    -0.238 NA
ATOM     12  H   ASP A   1     -43.103 -26.599 -17.367  0.00  0.00    +0.142 HD
ENDBRANCH  10  11
BRANCH  10  13
ATOM     13  CB  ASP A   1     -43.600 -24.364 -15.698  0.00  0.00    +0.140 C 
BRANCH  13  14
ATOM     14  CG  ASP A   1     -43.059 -25.403 -14.718  0.00  0.00    +0.367 C 
ATOM     15  OD2 ASP A   1     -43.316 -25.244 -13.508  0.00  0.00    -0.246 OA
ATOM     16  OD1 ASP A   1     -42.302 -26.317 -15.121  0.00  0.00    -0.246 OA
ENDBRANCH  13  14
ENDBRANCH  10  13
ENDBRANCH   6  10
ENDBRANCH   5   8
BRANCH   5  17
ATOM     17  CB  GLN A   2     -38.915 -26.170 -18.844  0.00  0.00    +0.039 C 
BRANCH  17  18
ATOM     18  CG  GLN A   2     -37.413 -26.330 -18.977  0.00  0.00    +0.087 C 
BRANCH  18  19
ATOM     19  CD  GLN A   2     -37.089 -27.486 -19.884  0.00  0.00    +0.219 C 
ATOM     20  NE2 GLN A   2     -35.824 -27.745 -20.077  0.00  0.00    -0.329 N 
ATOM     21 HE21 GLN A   2     -35.097 -27.148 -19.633  0.00  0.00    +0.145 HD
ATOM     22 HE22 GLN A   2     -35.543 -28.548 -20.675  0.00  0.00    +0.145 HD
ATOM     23  OE1 GLN A   2     -37.983 -28.153 -20.380  0.00  0.00    -0.275 OA
ENDBRANCH  18  19
ENDBRANCH  17  18
ENDBRANCH   5  17
ENDBRANCH   1   5
BRANCH   2  24
ATOM     24  CA  VAL A   3     -37.075 -21.887 -18.210  0.00  0.00    +0.149 C 
BRANCH  24  25
ATOM     25  C   VAL A   3     -35.549 -22.115 -18.276  0.00  0.00    +0.241 C 
ATOM     26  O   VAL A   3     -35.013 -23.106 -17.710  0.00  0.00    -0.273 OA
ATOM     27  N   GLN A   4     -34.857 -21.199 -18.956  0.00  0.00    -0.298 N 
ATOM     28  H   GLN A   4     -35.354 -20.392 -19.384  0.00  0.00    +0.150 HD
BRANCH  27  29
ATOM     29  CA  GLN A   4     -33.415 -21.316 -19.106  0.00  0.00    +0.137 C 
BRANCH  29  30
ATOM     30  C   GLN A   4     -32.745 -20.004 -18.878  0.00  0.00    +0.227 C 
ATOM     31  O   GLN A   4     -33.261 -18.940 -19.286  0.00  0.00    -0.286 OA
ENDBRANCH  29  30
BRANCH  29  32
ATOM     32  CB  GLN A   4     -33.048 -21.848 -20.511  0.00  0.00    +0.037 C 
BRANCH  32  33
ATOM     33  CG  GLN A   4     -31.568 -22.156 -20.723  0.00  0.00    +0.087 C 
BRANCH  33  34
ATOM     34  CD  GLN A   4     -31.301 -23.044 -21.927  0.00  0.00    +0.219 C 
ATOM     35  NE2 GLN A   4     -30.257 -23.852 -21.886  0.00  0.00    -0.329 N 
ATOM     36 HE21 GLN A   4     -29.631 -23.851 -21.056  0.00  0.00    +0.145 HD
ATOM     37 HE22 GLN A   4     -30.061 -24.489 -22.684  0.00  0.00    +0.145 HD
ATOM     38  OE1 GLN A   4     -32.044 -23.013 -22.859  0.00  0.00    -0.275 OA
ENDBRANCH  33  34
ENDBRANCH  32  33
ENDBRANCH  29  32
ENDBRANCH  27  29
ENDBRANCH  24  25
BRANCH  24  39
ATOM     39  CB  VAL A   3     -37.387 -20.739 -17.284  0.00  0.00    +0.027 C 
ATOM     40  CG2 VAL A   3     -36.782 -20.990 -15.892  0.00  0.00    +0.002 C 
ATOM     41  CG1 VAL A   3     -38.911 -20.502 -17.218  0.00  0.00    +0.002 C 
ENDBRANCH  24  39
ENDBRANCH   2  24
TORSDOF 17
REMARK  Name = ../refined-set-2016/4j48/4j48_pocket.pdb
REMARK  108 active torsions:
REMARK  status: ('A' for Active; 'I' for Inactive)
REMARK    1  A    between atoms: _1  and  _3
REMARK    2  A    between atoms: _3  and  _4
REMARK    3  A    between atoms: _3  and  _6
REMARK    4  A    between atoms: _6  and  _7
REMARK    5  A    between atoms: _10  and  _12
REMARK    6  A    between atoms: _12  and  _13
REMARK    7  A    between atoms: _12  and  _15
REMARK    8  A    between atoms: _15  and  _16
REMARK    9  A    between atoms: _19  and  _21
REMARK   10  A    between atoms: _21  and  _22
REMARK   11  A    between atoms: _21  and  _24
REMARK   12  A    between atoms: _24  and  _25
REMARK   13  A    between atoms: _28  and  _30
REMARK   14  A    between atoms: _30  and  _31
REMARK   15  A    between atoms: _30  and  _33
REMARK   16  A    between atoms: _33  and  _34
REMARK   17  A    between atoms: _37  and  _39
REMARK   18  A    between atoms: _39  and  _40
REMARK   19  A    between atoms: _39  and  _42
REMARK   20  A    between atoms: _42  and  _43
REMARK   21  A    between atoms: _46  and  _48
REMARK   22  A    between atoms: _48  and  _49
REMARK   23  A    between atoms: _48  and  _51
REMARK   24  A    between atoms: _51  and  _52
REMARK   25  A    between atoms: _52  and  _53
REMARK   26  A    between atoms: _58  and  _60
REMARK   27  A    between atoms: _60  and  _61
REMARK   28  A    between atoms: _60  and  _63
REMARK   29  A    between atoms: _66  and  _68
REMARK   30  A    between atoms: _68  and  _69
REMARK   31  A    between atoms: _68  and  _71
REMARK   32  A    between atoms: _71  and  _72
REMARK   33  A    between atoms: _72  and  _73
REMARK   34  A    between atoms: _78  and  _80
REMARK   35  A    between atoms: _80  and  _81
REMARK   36  A    between atoms: _83  and  _85
REMARK   37  A    between atoms: _85  and  _86
REMARK   38  A    between atoms: _85  and  _88
REMARK   39  A    between atoms: _88  and  _89
REMARK   40  A    between atoms: _89  and  _90
REMARK   41  A    between atoms: _90  and  _91
REMARK   42  A    between atoms: _91  and  _92
REMARK   43  A    between atoms: _96  and  _98
REMARK   44  A    between atoms: _98  and  _99
REMARK   45  A    between atoms: _98  and  _101
REMARK   46  A    between atoms: _101  and  _102
REMARK   47  A    between atoms: _105  and  _107
REMARK   48  A    between atoms: _107  and  _108
REMARK   49  A    between atoms: _107  and  _110
REMARK   50  A    between atoms: _110  and  _111
REMARK   51  A    between atoms: _111  and  _112
REMARK   52  A    between atoms: _112  and  _113
REMARK   53  A    between atoms: _113  and  _114
REMARK   54  A    between atoms: _118  and  _120
REMARK   55  A    between atoms: _120  and  _121
REMARK   56  A    between atoms: _120  and  _123
REMARK   57  A    between atoms: _123  and  _124
REMARK   58  A    between atoms: _129  and  _131
REMARK   59  A    between atoms: _131  and  _132
REMARK   60  A    between atoms: _131  and  _134
REMARK   61  A    between atoms: _134  and  _135
REMARK   62  A    between atoms: _145  and  _147
REMARK   63  A    between atoms: _147  and  _148
REMARK   64  A    between atoms: _147  and  _150
REMARK   65  A    between atoms: _150  and  _151
REMARK   66  A    between atoms: _151  and  _152
REMARK   67  A    between atoms: _156  and  _157
REMARK   68  A    between atoms: _162  and  _164
REMARK   69  A    between atoms: _164  and  _165
REMARK   70  A    between atoms: _167  and  _169
REMARK   71  A    between atoms: _169  and  _170
REMARK   72  A    between atoms: _169  and  _172
REMARK   73  A    between atoms: _172  and  _173
REMARK   74  A    between atoms: _176  and  _178
REMARK   75  A    between atoms: _178  and  _179
REMARK   76  A    between atoms: _178  and  _181
REMARK   77  A    between atoms: _181  and  _182
REMARK   78  A    between atoms: _182  and  _183
REMARK   79  A    between atoms: _183  and  _184
REMARK   80  A    between atoms: _193  and  _195
REMARK   81  A    between atoms: _195  and  _196
REMARK   82  A    between atoms: _199  and  _201
REMARK   83  A    between atoms: _201  and  _202
REMARK   84  A    between atoms: _201  and  _204
REMARK   85  A    between atoms: _204  and  _205
REMARK   86  A    between atoms: _207  and  _209
REMARK   87  A    between atoms: _209  and  _210
REMARK   88  A    between atoms: _209  and  _212
REMARK   89  A    between atoms: _212  and  _213
REMARK   90  A    between atoms: _213  and  _214
REMARK   91  A    between atoms: _217  and  _219
REMARK   92  A    between atoms: _219  and  _220
REMARK   93  A    between atoms: _219  and  _222
REMARK   94  A    between atoms: _222  and  _223
REMARK   95  A    between atoms: _228  and  _230
REMARK   96  A    between atoms: _230  and  _231
REMARK   97  A    between atoms: _230  and  _233
REMARK   98  A    between atoms: _233  and  _234
REMARK   99  A    between atoms: _234  and  _235
REMARK  100  A    between atoms: _235  and  _236
REMARK  101  A    between atoms: _245  and  _247
REMARK  102  A    between atoms: _247  and  _248
REMARK  103  A    between atoms: _247  and  _250
REMARK  104  A    between atoms: _250  and  _251
REMARK  105  A    between atoms: _256  and  _258
REMARK  106  A    between atoms: _258  and  _259
REMARK  107  A    between atoms: _258  and  _261
REMARK  108  A    between atoms: _261  and  _262
REMARK                            x       y       z     vdW  Elec       q    Type
REMARK                         _______ _______ _______ _____ _____    ______ ____
ROOT
ATOM      1  CA  TRP A   6     -41.836 -24.220  -9.892  0.00  0.00    +0.153 C 
ENDROOT
BRANCH   1   2
ATOM      2  C   TRP A   6     -42.843 -24.514  -8.748  0.00  0.00    +0.241 C 
ATOM      3  N   GLU A   7     -42.545 -24.005  -7.570  0.00  0.00    -0.297 N 
ATOM      4  H   GLU A   7     -41.816 -23.264  -7.531  0.00  0.00    +0.150 HD
ATOM      5  O   TRP A   6     -43.772 -25.244  -8.915  0.00  0.00    -0.273 OA
BRANCH   3   6
ATOM      6  CA  GLU A   7     -43.170 -24.412  -6.319  0.00  0.00    +0.149 C 
BRANCH   6   7
ATOM      7  C   GLU A   7     -43.760 -23.140  -5.723  0.00  0.00    +0.244 C 
ATOM      8  N   PRO A   8     -44.899 -23.236  -4.987  0.00  0.00    -0.272 N 
ATOM      9  CA  PRO A   8     -45.449 -22.034  -4.354  0.00  0.00    +0.152 C 
ATOM     10  CB  PRO A   8     -46.611 -22.591  -3.530  0.00  0.00    +0.031 C 
ATOM     11  CG  PRO A   8     -46.229 -24.016  -3.257  0.00  0.00    +0.024 C 
ATOM     12  CD  PRO A   8     -45.641 -24.434  -4.569  0.00  0.00    +0.094 C 
ATOM     13  O   GLU A   7     -43.206 -22.063  -5.938  0.00  0.00    -0.273 OA
BRANCH   9  14
ATOM     14  C   PRO A   8     -44.379 -21.413  -3.426  0.00  0.00    +0.241 C 
ATOM     15  O   PRO A   8     -43.753 -22.117  -2.618  0.00  0.00    -0.273 OA
ATOM     16  N   GLY A   9     -44.162 -20.107  -3.549  0.00  0.00    -0.295 N 
ATOM     17  H   GLY A   9     -44.701 -19.556  -4.247  0.00  0.00    +0.150 HD
BRANCH  16  18
ATOM     18  CA  GLY A   9     -43.168 -19.442  -2.707  0.00  0.00    +0.176 C 
BRANCH  18  19
ATOM     19  C   GLY A   9     -41.783 -19.410  -3.298  0.00  0.00    +0.243 C 
ATOM     20  O   GLY A   9     -40.873 -18.929  -2.637  0.00  0.00    -0.273 OA
ATOM     21  N   ASP A  10     -41.597 -19.967  -4.503  0.00  0.00    -0.296 N 
ATOM     22  H   ASP A  10     -42.405 -20.403  -4.991  0.00  0.00    +0.150 HD
BRANCH  21  23
ATOM     23  CA  ASP A  10     -40.271 -19.975  -5.153  0.00  0.00    +0.160 C 
BRANCH  23  24
ATOM     24  C   ASP A  10     -40.128 -18.551  -5.667  0.00  0.00    +0.241 C 
ATOM     25  N   ARG A  11     -38.903 -18.058  -5.636  0.00  0.00    -0.297 N 
ATOM     26  H   ARG A  11     -38.170 -18.601  -5.136  0.00  0.00    +0.150 HD
ATOM     27  O   ASP A  10     -41.116 -17.943  -6.103  0.00  0.00    -0.273 OA
BRANCH  25  28
ATOM     28  CA  ARG A  11     -38.523 -16.819  -6.251  0.00  0.00    +0.149 C 
BRANCH  28  29
ATOM     29  C   ARG A  11     -37.549 -17.163  -7.387  0.00  0.00    +0.241 C 
ATOM     30  O   ARG A  11     -36.708 -18.030  -7.221  0.00  0.00    -0.273 OA
ATOM     31  N   ALA A  12     -37.619 -16.479  -8.520  0.00  0.00    -0.298 N 
ATOM     32  H   ALA A  12     -38.326 -15.725  -8.635  0.00  0.00    +0.150 HD
BRANCH  31  33
ATOM     33  CA  ALA A  12     -36.679 -16.799  -9.623  0.00  0.00    +0.137 C 
ATOM     34  CB  ALA A  12     -36.979 -15.976 -10.858  0.00  0.00    +0.030 C 
BRANCH  33  35
ATOM     35  C   ALA A  12     -35.218 -16.611  -9.281  0.00  0.00    +0.227 C 
ATOM     36  O   ALA A  12     -34.376 -17.430  -9.678  0.00  0.00    -0.286 OA
ENDBRANCH  33  35
ENDBRANCH  31  33
ENDBRANCH  28  29
BRANCH  28  37
ATOM     37  CB  ARG A  11     -37.819 -15.921  -5.224  0.00  0.00    +0.033 C 
BRANCH  37  38
ATOM     38  CG  ARG A  11     -38.594 -15.674  -3.923  0.00  0.00    +0.045 C 
BRANCH  38  39
ATOM     39  CD  ARG A  11     -39.581 -14.514  -4.057  0.00  0.00    +0.174 C 
BRANCH  39  40
ATOM     40  NE  ARG A  11     -40.366 -14.602  -5.308  0.00  0.00    -0.265 N 
ATOM     41  CZ  ARG A  11     -41.686 -14.887  -5.410  0.00  0.00    +0.342 C 
ATOM     42  NH2 ARG A  11     -42.456 -15.084  -4.338  0.00  0.00    -0.292 N 
ATOM     43 HH21 ARG A  11     -42.046 -15.021  -3.384  0.00  0.00    +0.255 HD
ATOM     44 HH22 ARG A  11     -43.466 -15.301  -4.456  0.00  0.00    +0.255 HD
ATOM     45  NH1 ARG A  11     -42.247 -14.973  -6.603  0.00  0.00    -0.292 N 
ATOM     46 HH11 ARG A  11     -43.260 -15.192  -6.687  0.00  0.00    +0.255 HD
ATOM     47 HH12 ARG A  11     -41.675 -14.822  -7.459  0.00  0.00    +0.255 HD
ATOM     48  HE  ARG A  11     -39.854 -14.428  -6.196  0.00  0.00    +0.259 HD
ENDBRANCH  39  40
ENDBRANCH  38  39
ENDBRANCH  37  38
ENDBRANCH  28  37
ENDBRANCH  25  28
ENDBRANCH  23  24
BRANCH  23  49
ATOM     49  CB  ASP A  10     -40.199 -20.879  -6.390  0.00  0.00    +0.143 C 
BRANCH  49  50
ATOM     50  CG  ASP A  10     -39.983 -22.407  -6.053  0.00  0.00    +0.367 C 
ATOM     51  OD2 ASP A  10     -39.707 -22.788  -4.909  0.00  0.00    -0.246 OA
ATOM     52  OD1 ASP A  10     -40.054 -23.240  -6.990  0.00  0.00    -0.246 OA
ENDBRANCH  49  50
ENDBRANCH  23  49
ENDBRANCH  21  23
ENDBRANCH  18  19
ENDBRANCH  16  18
ENDBRANCH   9  14
ENDBRANCH   6   7
BRANCH   6  53
ATOM     53  CB  GLU A   7     -42.100 -24.969  -5.386  0.00  0.00    +0.041 C 
BRANCH  53  54
ATOM     54  CG  GLU A   7     -42.563 -26.132  -4.546  0.00  0.00    +0.116 C 
BRANCH  54  55
ATOM     55  CD  GLU A   7     -42.677 -27.415  -5.335  0.00  0.00    +0.365 C 
ATOM     56  OE2 GLU A   7     -43.764 -27.994  -5.339  0.00  0.00    -0.246 OA
ATOM     57  OE1 GLU A   7     -41.657 -27.843  -5.926  0.00  0.00    -0.246 OA
ENDBRANCH  54  55
ENDBRANCH  53  54
ENDBRANCH   6  53
ENDBRANCH   3   6
ENDBRANCH   1   2
BRANCH   1  60
ATOM     58  C   ASN A   5     -41.557 -26.517 -10.555  0.00  0.00    +0.241 C 
ATOM     59  O   ASN A   5     -41.167 -26.801  -9.452  0.00  0.00    -0.273 OA
ATOM     60  N   TRP A   6     -41.892 -25.282 -10.874  0.00  0.00    -0.297 N 
ATOM     61  H   TRP A   6     -42.200 -25.068 -11.844  0.00  0.00    +0.150 HD
BRANCH  58  62
ATOM     62  CA  ASN A   5     -41.694 -27.547 -11.679  0.00  0.00    +0.158 C 
BRANCH  62  65
ATOM     63  C   LYS A   4     -39.598 -26.827 -12.699  0.00  0.00    +0.241 C 
ATOM     64  O   LYS A   4     -38.960 -26.780 -11.631  0.00  0.00    -0.273 OA
ATOM     65  N   ASN A   5     -40.890 -27.129 -12.790  0.00  0.00    -0.297 N 
ATOM     66  H   ASN A   5     -41.344 -27.058 -13.723  0.00  0.00    +0.150 HD
BRANCH  63  67
ATOM     67  CA  LYS A   4     -38.934 -26.501 -14.033  0.00  0.00    +0.149 C 
BRANCH  67  69
ATOM     68  C   LEU A   3     -36.797 -25.350 -14.541  0.00  0.00    +0.241 C 
ATOM     69  N   LYS A   4     -37.490 -26.219 -13.787  0.00  0.00    -0.297 N 
ATOM     70  H   LYS A   4     -37.006 -26.710 -13.009  0.00  0.00    +0.150 HD
ATOM     71  O   LEU A   3     -37.264 -24.717 -15.493  0.00  0.00    -0.273 OA
BRANCH  68  72
ATOM     72  CA  LEU A   3     -35.355 -25.125 -14.153  0.00  0.00    +0.149 C 
BRANCH  72  75
ATOM     73  C   LYS A   2     -33.350 -25.404 -15.484  0.00  0.00    +0.241 C 
ATOM     74  O   LYS A   2     -32.853 -26.182 -14.669  0.00  0.00    -0.273 OA
ATOM     75  N   LEU A   3     -34.567 -24.871 -15.342  0.00  0.00    -0.297 N 
ATOM     76  H   LEU A   3     -34.954 -24.266 -16.095  0.00  0.00    +0.150 HD
BRANCH  73  77
ATOM     77  CA  LYS A   2     -32.605 -24.976 -16.728  0.00  0.00    +0.149 C 
BRANCH  77  79
ATOM     78  C   GLY A   1     -30.536 -23.664 -16.796  0.00  0.00    +0.240 C 
ATOM     79  N   LYS A   2     -31.178 -24.782 -16.485  0.00  0.00    -0.297 N 
ATOM     80  H   LYS A   2     -30.640 -25.557 -16.047  0.00  0.00    +0.150 HD
ATOM     81  O   GLY A   1     -31.099 -22.652 -17.230  0.00  0.00    -0.274 OA
BRANCH  78  82
ATOM     82  CA  GLY A   1     -29.055 -23.658 -16.501  0.00  0.00    +0.169 C 
BRANCH  82  83
ATOM     83  N   GLY A   1     -28.389 -22.763 -17.407  0.00  0.00    -0.236 NA
ATOM     84  H   GLY A   1     -27.938 -21.891 -17.064  0.00  0.00    +0.142 HD
ENDBRANCH  82  83
ENDBRANCH  78  82
ENDBRANCH  77  79
BRANCH  77  85
ATOM     85  CB  LYS A   2     -32.832 -26.032 -17.794  0.00  0.00    +0.029 C 
BRANCH  85  86
ATOM     86  CG  LYS A   2     -32.483 -25.583 -19.198  0.00  0.00    +0.000 C 
BRANCH  86  87
ATOM     87  CD  LYS A   2     -32.996 -26.564 -20.220  0.00  0.00    -0.024 C 
BRANCH  87  88
ATOM     88  CE  LYS A   2     -31.926 -26.934 -21.204  0.00  0.00    -0.086 C 
BRANCH  88  89
ATOM     89  NZ  LYS A   2     -32.547 -27.463 -22.453  0.00  0.00    +0.380 N 
ATOM     90  HZ1 LYS A   2     -33.113 -28.306 -22.227  0.00  0.00    -0.089 HD
ATOM     91  HZ2 LYS A   2     -33.160 -26.734 -22.870  0.00  0.00    -0.089 HD
ATOM     92  HZ3 LYS A   2     -31.799 -27.717 -23.130  0.00  0.00    -0.089 HD
ENDBRANCH  88  89
ENDBRANCH  87  88
ENDBRANCH  86  87
ENDBRANCH  85  86
ENDBRANCH  77  85
ENDBRANCH  73  77
ENDBRANCH  72  75
BRANCH  72  93
ATOM     93  CB  LEU A   3     -35.277 -23.934 -13.224  0.00  0.00    +0.029 C 
BRANCH  93  94
ATOM     94  CG  LEU A   3     -33.926 -23.711 -12.522  0.00  0.00    +0.002 C 
ATOM     95  CD2 LEU A   3     -33.571 -24.811 -11.535  0.00  0.00    +0.000 C 
ATOM     96  CD1 LEU A   3     -34.056 -22.349 -11.834  0.00  0.00    +0.000 C 
ENDBRANCH  93  94
ENDBRANCH  72  93
ENDBRANCH  68  72
ENDBRANCH  67  69
BRANCH  67  97
ATOM     97  CB  LYS A   4     -39.124 -27.668 -15.012  0.00  0.00    +0.029 C 
BRANCH  97  98
ATOM     98  CG  LYS A   4     -38.488 -28.981 -14.511  0.00  0.00    +0.000 C 
BRANCH  98  99
ATOM     99  CD  LYS A   4     -38.917 -30.208 -15.294  0.00  0.00    -0.024 C 
BRANCH  99 100
ATOM    100  CE  LYS A   4     -38.541 -31.433 -14.482  0.00  0.00    -0.086 C 
BRANCH 100 101
ATOM    101  NZ  LYS A   4     -38.862 -32.716 -15.155  0.00  0.00    +0.380 N 
ATOM    102  HZ1 LYS A   4     -38.578 -33.508 -14.543  0.00  0.00    -0.089 HD
ATOM    103  HZ2 LYS A   4     -39.885 -32.765 -15.335  0.00  0.00    -0.089 HD
ATOM    104  HZ3 LYS A   4     -38.347 -32.771 -16.057  0.00  0.00    -0.089 HD
ENDBRANCH 100 101
ENDBRANCH  99 100
ENDBRANCH  98  99
ENDBRANCH  97  98
ENDBRANCH  67  97
ENDBRANCH  63  67
ENDBRANCH  62  65
BRANCH  62 105
ATOM    105  CB  ASN A   5     -41.327 -28.974 -11.269  0.00  0.00    +0.114 C 
BRANCH 105 106
ATOM    106  CG  ASN A   5     -41.769 -30.037 -12.296  0.00  0.00    +0.222 C 
ATOM    107  ND2 ASN A   5     -41.120 -31.146 -12.235  0.00  0.00    -0.329 N 
ATOM    108 HD21 ASN A   5     -40.352 -31.261 -11.544  0.00  0.00    +0.145 HD
ATOM    109 HD22 ASN A   5     -41.364 -31.927 -12.877  0.00  0.00    +0.145 HD
ATOM    110  OD1 ASN A   5     -42.673 -29.868 -13.092  0.00  0.00    -0.275 OA
ENDBRANCH 105 106
ENDBRANCH  62 105
ENDBRANCH  58  62
ENDBRANCH   1  60
BRANCH   1 111
ATOM    111  CB  TRP A   6     -42.107 -22.895 -10.567  0.00  0.00    +0.057 C 
BRANCH 111 112
ATOM    112  CG  TRP A   6     -41.040 -22.586 -11.521  0.00  0.00    -0.002 A 
ATOM    113  CD2 TRP A   6     -39.865 -21.811 -11.250  0.00  0.00    +0.013 A 
ATOM    114  CE3 TRP A   6     -39.406 -21.109 -10.133  0.00  0.00    +0.001 A 
ATOM    115  CZ3 TRP A   6     -38.153 -20.411 -10.231  0.00  0.00    +0.000 A 
ATOM    116  CH2 TRP A   6     -37.454 -20.397 -11.417  0.00  0.00    +0.001 A 
ATOM    117  CZ2 TRP A   6     -37.909 -21.062 -12.528  0.00  0.00    +0.017 A 
ATOM    118  CE2 TRP A   6     -39.118 -21.760 -12.432  0.00  0.00    +0.056 A 
ATOM    119  NE1 TRP A   6     -39.807 -22.472 -13.381  0.00  0.00    -0.352 N 
ATOM    120  HE1 TRP A   6     -39.507 -22.611 -14.367  0.00  0.00    +0.166 HD
ATOM    121  CD1 TRP A   6     -40.954 -22.970 -12.820  0.00  0.00    +0.068 A 
ENDBRANCH 111 112
ENDBRANCH   1 111
TORSDOF 48
REMARK  Name = ../refined-set-2016/4j48/4j48_pocket.pdb
REMARK  108 active torsions:
REMARK  status: ('A' for Active; 'I' for Inactive)
REMARK    1  A    between atoms: _1  and  _3
REMARK    2  A    between atoms: _3  and  _4
REMARK    3  A    between atoms: _3  and  _6
REMARK    4  A    between atoms: _6  and  _7
REMARK    5  A    between atoms: _10  and  _12
REMARK    6  A    between atoms: _12  and  _13
REMARK    7  A    between atoms: _12  and  _15
REMARK    8  A    between atoms: _15  and  _16
REMARK    9  A    between atoms: _19  and  _21
REMARK   10  A    between atoms: _21  and  _22
REMARK   11  A    between atoms: _21  and  _24
REMARK   12  A    between atoms: _24  and  _25
REMARK   13  A    between atoms: _28  and  _30
REMARK   14  A    between atoms: _30  and  _31
REMARK   15  A    between atoms: _30  and  _33
REMARK   16  A    between atoms: _33  and  _34
REMARK   17  A    between atoms: _37  and  _39
REMARK   18  A    between atoms: _39  and  _40
REMARK   19  A    between atoms: _39  and  _42
REMARK   20  A    between atoms: _42  and  _43
REMARK   21  A    between atoms: _46  and  _48
REMARK   22  A    between atoms: _48  and  _49
REMARK   23  A    between atoms: _48  and  _51
REMARK   24  A    between atoms: _51  and  _52
REMARK   25  A    between atoms: _52  and  _53
REMARK   26  A    between atoms: _58  and  _60
REMARK   27  A    between atoms: _60  and  _61
REMARK   28  A    between atoms: _60  and  _63
REMARK   29  A    between atoms: _66  and  _68
REMARK   30  A    between atoms: _68  and  _69
REMARK   31  A    between atoms: _68  and  _71
REMARK   32  A    between atoms: _71  and  _72
REMARK   33  A    between atoms: _72  and  _73
REMARK   34  A    between atoms: _78  and  _80
REMARK   35  A    between atoms: _80  and  _81
REMARK   36  A    between atoms: _83  and  _85
REMARK   37  A    between atoms: _85  and  _86
REMARK   38  A    between atoms: _85  and  _88
REMARK   39  A    between atoms: _88  and  _89
REMARK   40  A    between atoms: _89  and  _90
REMARK   41  A    between atoms: _90  and  _91
REMARK   42  A    between atoms: _91  and  _92
REMARK   43  A    between atoms: _96  and  _98
REMARK   44  A    between atoms: _98  and  _99
REMARK   45  A    between atoms: _98  and  _101
REMARK   46  A    between atoms: _101  and  _102
REMARK   47  A    between atoms: _105  and  _107
REMARK   48  A    between atoms: _107  and  _108
REMARK   49  A    between atoms: _107  and  _110
REMARK   50  A    between atoms: _110  and  _111
REMARK   51  A    between atoms: _111  and  _112
REMARK   52  A    between atoms: _112  and  _113
REMARK   53  A    between atoms: _113  and  _114
REMARK   54  A    between atoms: _118  and  _120
REMARK   55  A    between atoms: _120  and  _121
REMARK   56  A    between atoms: _120  and  _123
REMARK   57  A    between atoms: _123  and  _124
REMARK   58  A    between atoms: _129  and  _131
REMARK   59  A    between atoms: _131  and  _132
REMARK   60  A    between atoms: _131  and  _134
REMARK   61  A    between atoms: _134  and  _135
REMARK   62  A    between atoms: _145  and  _147
REMARK   63  A    between atoms: _147  and  _148
REMARK   64  A    between atoms: _147  and  _150
REMARK   65  A    between atoms: _150  and  _151
REMARK   66  A    between atoms: _151  and  _152
REMARK   67  A    between atoms: _156  and  _157
REMARK   68  A    between atoms: _162  and  _164
REMARK   69  A    between atoms: _164  and  _165
REMARK   70  A    between atoms: _167  and  _169
REMARK   71  A    between atoms: _169  and  _170
REMARK   72  A    between atoms: _169  and  _172
REMARK   73  A    between atoms: _172  and  _173
REMARK   74  A    between atoms: _176  and  _178
REMARK   75  A    between atoms: _178  and  _179
REMARK   76  A    between atoms: _178  and  _181
REMARK   77  A    between atoms: _181  and  _182
REMARK   78  A    between atoms: _182  and  _183
REMARK   79  A    between atoms: _183  and  _184
REMARK   80  A    between atoms: _193  and  _195
REMARK   81  A    between atoms: _195  and  _196
REMARK   82  A    between atoms: _199  and  _201
REMARK   83  A    between atoms: _201  and  _202
REMARK   84  A    between atoms: _201  and  _204
REMARK   85  A    between atoms: _204  and  _205
REMARK   86  A    between atoms: _207  and  _209
REMARK   87  A    between atoms: _209  and  _210
REMARK   88  A    between atoms: _209  and  _212
REMARK   89  A    between atoms: _212  and  _213
REMARK   90  A    between atoms: _213  and  _214
REMARK   91  A    between atoms: _217  and  _219
REMARK   92  A    between atoms: _219  and  _220
REMARK   93  A    between atoms: _219  and  _222
REMARK   94  A    between atoms: _222  and  _223
REMARK   95  A    between atoms: _228  and  _230
REMARK   96  A    between atoms: _230  and  _231
REMARK   97  A    between atoms: _230  and  _233
REMARK   98  A    between atoms: _233  and  _234
REMARK   99  A    between atoms: _234  and  _235
REMARK  100  A    between atoms: _235  and  _236
REMARK  101  A    between atoms: _245  and  _247
REMARK  102  A    between atoms: _247  and  _248
REMARK  103  A    between atoms: _247  and  _250
REMARK  104  A    between atoms: _250  and  _251
REMARK  105  A    between atoms: _256  and  _258
REMARK  106  A    between atoms: _258  and  _259
REMARK  107  A    between atoms: _258  and  _261
REMARK  108  A    between atoms: _261  and  _262
REMARK                            x       y       z     vdW  Elec       q    Type
REMARK                         _______ _______ _______ _____ _____    ______ ____
ROOT
ATOM      1  CA  GLU A   2     -33.937 -20.736  -7.365  0.00  0.00    +0.149 C 
ENDROOT
BRANCH   1   4
ATOM      2  C   SER A   1     -33.103 -19.050  -5.839  0.00  0.00    +0.241 C 
ATOM      3  O   SER A   1     -32.161 -19.764  -5.554  0.00  0.00    -0.274 OA
ATOM      4  N   GLU A   2     -34.061 -19.445  -6.664  0.00  0.00    -0.297 N 
ATOM      5  H   GLU A   2     -34.898 -18.847  -6.817  0.00  0.00    +0.150 HD
BRANCH   2   6
ATOM      6  CA  SER A   1     -33.164 -17.626  -5.317  0.00  0.00    +0.174 C 
BRANCH   6   7
ATOM      7  N   SER A   1     -33.711 -16.753  -6.334  0.00  0.00    -0.236 NA
ATOM      8  H   SER A   1     -34.697 -16.429  -6.267  0.00  0.00    +0.142 HD
ENDBRANCH   6   7
BRANCH   6   9
ATOM      9  CB  SER A   1     -33.860 -17.466  -3.972  0.00  0.00    +0.163 C 
BRANCH   9  10
ATOM     10  OG  SER A   1     -35.178 -17.941  -4.019  0.00  0.00    -0.380 OA
ATOM     11  H   SER A   1     -35.173 -18.902  -4.259  0.00  0.00    +0.211 HD
ENDBRANCH   9  10
ENDBRANCH   6   9
ENDBRANCH   2   6
ENDBRANCH   1   4
BRANCH   1  12
ATOM     12  C   GLU A   2     -32.798 -20.783  -8.368  0.00  0.00    +0.241 C 
ATOM     13  O   GLU A   2     -32.150 -21.794  -8.493  0.00  0.00    -0.273 OA
ATOM     14  N   HIS A   3     -32.598 -19.687  -9.110  0.00  0.00    -0.298 N 
ATOM     15  H   HIS A   3     -33.298 -18.920  -9.052  0.00  0.00    +0.150 HD
BRANCH  14  16
ATOM     16  CA  HIS A   3     -31.450 -19.508  -9.997  0.00  0.00    +0.143 C 
BRANCH  16  17
ATOM     17  C   HIS A   3     -30.109 -19.663  -9.242  0.00  0.00    +0.227 C 
ATOM     18  O   HIS A   3     -29.229 -20.471  -9.610  0.00  0.00    -0.286 OA
ENDBRANCH  16  17
BRANCH  16  19
ATOM     19  CB  HIS A   3     -31.544 -18.153 -10.672  0.00  0.00    +0.075 C 
BRANCH  19  20
ATOM     20  CG  HIS A   3     -30.653 -17.969 -11.852  0.00  0.00    +0.082 A 
ATOM     21  CD2 HIS A   3     -29.647 -18.718 -12.340  0.00  0.00    +0.115 A 
ATOM     22  NE2 HIS A   3     -29.160 -18.068 -13.441  0.00  0.00    -0.221 NA
ATOM     23  CE1 HIS A   3     -29.899 -17.003 -13.676  0.00  0.00    +0.199 A 
ATOM     24  ND1 HIS A   3     -30.806 -16.920 -12.730  0.00  0.00    -0.227 NA
ENDBRANCH  19  20
ENDBRANCH  16  19
ENDBRANCH  14  16
ENDBRANCH   1  12
BRANCH   1  25
ATOM     25  CB  GLU A   2     -35.220 -21.085  -8.059  0.00  0.00    +0.041 C 
BRANCH  25  26
ATOM     26  CG  GLU A   2     -36.337 -21.361  -7.063  0.00  0.00    +0.116 C 
BRANCH  26  27
ATOM     27  CD  GLU A   2     -35.965 -22.471  -6.105  0.00  0.00    +0.365 C 
ATOM     28  OE2 GLU A   2     -35.840 -22.171  -4.908  0.00  0.00    -0.246 OA
ATOM     29  OE1 GLU A   2     -35.830 -23.642  -6.526  0.00  0.00    -0.246 OA
ENDBRANCH  26  27
ENDBRANCH  25  26
ENDBRANCH   1  25
TORSDOF 13
REMARK  Name = ../refined-set-2016/4j48/4j48_pocket.pdb
REMARK  108 active torsions:
REMARK  status: ('A' for Active; 'I' for Inactive)
REMARK    1  A    between atoms: _1  and  _3
REMARK    2  A    between atoms: _3  and  _4
REMARK    3  A    between atoms: _3  and  _6
REMARK    4  A    between atoms: _6  and  _7
REMARK    5  A    between atoms: _10  and  _12
REMARK    6  A    between atoms: _12  and  _13
REMARK    7  A    between atoms: _12  and  _15
REMARK    8  A    between atoms: _15  and  _16
REMARK    9  A    between atoms: _19  and  _21
REMARK   10  A    between atoms: _21  and  _22
REMARK   11  A    between atoms: _21  and  _24
REMARK   12  A    between atoms: _24  and  _25
REMARK   13  A    between atoms: _28  and  _30
REMARK   14  A    between atoms: _30  and  _31
REMARK   15  A    between atoms: _30  and  _33
REMARK   16  A    between atoms: _33  and  _34
REMARK   17  A    between atoms: _37  and  _39
REMARK   18  A    between atoms: _39  and  _40
REMARK   19  A    between atoms: _39  and  _42
REMARK   20  A    between atoms: _42  and  _43
REMARK   21  A    between atoms: _46  and  _48
REMARK   22  A    between atoms: _48  and  _49
REMARK   23  A    between atoms: _48  and  _51
REMARK   24  A    between atoms: _51  and  _52
REMARK   25  A    between atoms: _52  and  _53
REMARK   26  A    between atoms: _58  and  _60
REMARK   27  A    between atoms: _60  and  _61
REMARK   28  A    between atoms: _60  and  _63
REMARK   29  A    between atoms: _66  and  _68
REMARK   30  A    between atoms: _68  and  _69
REMARK   31  A    between atoms: _68  and  _71
REMARK   32  A    between atoms: _71  and  _72
REMARK   33  A    between atoms: _72  and  _73
REMARK   34  A    between atoms: _78  and  _80
REMARK   35  A    between atoms: _80  and  _81
REMARK   36  A    between atoms: _83  and  _85
REMARK   37  A    between atoms: _85  and  _86
REMARK   38  A    between atoms: _85  and  _88
REMARK   39  A    between atoms: _88  and  _89
REMARK   40  A    between atoms: _89  and  _90
REMARK   41  A    between atoms: _90  and  _91
REMARK   42  A    between atoms: _91  and  _92
REMARK   43  A    between atoms: _96  and  _98
REMARK   44  A    between atoms: _98  and  _99
REMARK   45  A    between atoms: _98  and  _101
REMARK   46  A    between atoms: _101  and  _102
REMARK   47  A    between atoms: _105  and  _107
REMARK   48  A    between atoms: _107  and  _108
REMARK   49  A    between atoms: _107  and  _110
REMARK   50  A    between atoms: _110  and  _111
REMARK   51  A    between atoms: _111  and  _112
REMARK   52  A    between atoms: _112  and  _113
REMARK   53  A    between atoms: _113  and  _114
REMARK   54  A    between atoms: _118  and  _120
REMARK   55  A    between atoms: _120  and  _121
REMARK   56  A    between atoms: _120  and  _123
REMARK   57  A    between atoms: _123  and  _124
REMARK   58  A    between atoms: _129  and  _131
REMARK   59  A    between atoms: _131  and  _132
REMARK   60  A    between atoms: _131  and  _134
REMARK   61  A    between atoms: _134  and  _135
REMARK   62  A    between atoms: _145  and  _147
REMARK   63  A    between atoms: _147  and  _148
REMARK   64  A    between atoms: _147  and  _150
REMARK   65  A    between atoms: _150  and  _151
REMARK   66  A    between atoms: _151  and  _152
REMARK   67  A    between atoms: _156  and  _157
REMARK   68  A    between atoms: _162  and  _164
REMARK   69  A    between atoms: _164  and  _165
REMARK   70  A    between atoms: _167  and  _169
REMARK   71  A    between atoms: _169  and  _170
REMARK   72  A    between atoms: _169  and  _172
REMARK   73  A    between atoms: _172  and  _173
REMARK   74  A    between atoms: _176  and  _178
REMARK   75  A    between atoms: _178  and  _179
REMARK   76  A    between atoms: _178  and  _181
REMARK   77  A    between atoms: _181  and  _182
REMARK   78  A    between atoms: _182  and  _183
REMARK   79  A    between atoms: _183  and  _184
REMARK   80  A    between atoms: _193  and  _195
REMARK   81  A    between atoms: _195  and  _196
REMARK   82  A    between atoms: _199  and  _201
REMARK   83  A    between atoms: _201  and  _202
REMARK   84  A    between atoms: _201  and  _204
REMARK   85  A    between atoms: _204  and  _205
REMARK   86  A    between atoms: _207  and  _209
REMARK   87  A    between atoms: _209  and  _210
REMARK   88  A    between atoms: _209  and  _212
REMARK   89  A    between atoms: _212  and  _213
REMARK   90  A    between atoms: _213  and  _214
REMARK   91  A    between atoms: _217  and  _219
REMARK   92  A    between atoms: _219  and  _220
REMARK   93  A    between atoms: _219  and  _222
REMARK   94  A    between atoms: _222  and  _223
REMARK   95  A    between atoms: _228  and  _230
REMARK   96  A    between atoms: _230  and  _231
REMARK   97  A    between atoms: _230  and  _233
REMARK   98  A    between atoms: _233  and  _234
REMARK   99  A    between atoms: _234  and  _235
REMARK  100  A    between atoms: _235  and  _236
REMARK  101  A    between atoms: _245  and  _247
REMARK  102  A    between atoms: _247  and  _248
REMARK  103  A    between atoms: _247  and  _250
REMARK  104  A    between atoms: _250  and  _251
REMARK  105  A    between atoms: _256  and  _258
REMARK  106  A    between atoms: _258  and  _259
REMARK  107  A    between atoms: _258  and  _261
REMARK  108  A    between atoms: _261  and  _262
REMARK                            x       y       z     vdW  Elec       q    Type
REMARK                         _______ _______ _______ _____ _____    ______ ____
ROOT
ATOM      1  CA  HIS A   2     -29.132 -24.315  -8.340  0.00  0.00    +0.155 C 
ENDROOT
BRANCH   1   4
ATOM      2  C   ARG A   1     -28.931 -23.196  -6.193  0.00  0.00    +0.238 C 
ATOM      3  O   ARG A   1     -28.196 -24.074  -5.785  0.00  0.00    -0.274 OA
ATOM      4  N   HIS A   2     -29.437 -23.225  -7.411  0.00  0.00    -0.297 N 
ATOM      5  H   HIS A   2     -30.067 -22.456  -7.718  0.00  0.00    +0.150 HD
BRANCH   2   6
ATOM      6  CA  ARG A   1     -29.239 -21.964  -5.312  0.00  0.00    +0.145 C 
BRANCH   6   7
ATOM      7  N   ARG A   1     -29.484 -20.753  -6.096  0.00  0.00    -0.238 NA
ATOM      8  H   ARG A   1     -30.447 -20.373  -6.194  0.00  0.00    +0.142 HD
ENDBRANCH   6   7
BRANCH   6   9
ATOM      9  CB  ARG A   1     -30.363 -22.215  -4.262  0.00  0.00    +0.030 C 
BRANCH   9  10
ATOM     10  CG  ARG A   1     -31.640 -22.881  -4.778  0.00  0.00    +0.045 C 
BRANCH  10  11
ATOM     11  CD  ARG A   1     -32.680 -23.078  -3.656  0.00  0.00    +0.174 C 
BRANCH  11  12
ATOM     12  NE  ARG A   1     -33.793 -23.962  -4.057  0.00  0.00    -0.265 N 
ATOM     13  CZ  ARG A   1     -33.705 -25.288  -4.154  0.00  0.00    +0.342 C 
ATOM     14  NH2 ARG A   1     -32.573 -25.907  -3.850  0.00  0.00    -0.292 N 
ATOM     15 HH21 ARG A   1     -31.748 -25.358  -3.534  0.00  0.00    +0.255 HD
ATOM     16 HH22 ARG A   1     -32.509 -26.942  -3.927  0.00  0.00    +0.255 HD
ATOM     17  NH1 ARG A   1     -34.759 -25.997  -4.543  0.00  0.00    -0.292 N 
ATOM     18 HH11 ARG A   1     -34.690 -27.032  -4.619  0.00  0.00    +0.255 HD
ATOM     19 HH12 ARG A   1     -35.653 -25.517  -4.772  0.00  0.00    +0.255 HD
ATOM     20  HE  ARG A   1     -34.708 -23.519  -4.279  0.00  0.00    +0.259 HD
ENDBRANCH  11  12
ENDBRANCH  10  11
ENDBRANCH   9  10
ENDBRANCH   6   9
ENDBRANCH   2   6
ENDBRANCH   1   4
BRANCH   1  21
ATOM     21  C   HIS A   2     -27.874 -24.065  -9.152  0.00  0.00    +0.241 C 
ATOM     22  O   HIS A   2     -27.121 -25.008  -9.435  0.00  0.00    -0.273 OA
ATOM     23  N   PHE A   3     -27.663 -22.815  -9.558  0.00  0.00    -0.298 N 
ATOM     24  H   PHE A   3     -28.349 -22.082  -9.286  0.00  0.00    +0.150 HD
BRANCH  23  25
ATOM     25  CA  PHE A   3     -26.491 -22.420 -10.383  0.00  0.00    +0.141 C 
BRANCH  25  26
ATOM     26  C   PHE A   3     -25.735 -21.241  -9.762  0.00  0.00    +0.227 C 
ATOM     27  O   PHE A   3     -25.675 -20.170 -10.340  0.00  0.00    -0.286 OA
ENDBRANCH  25  26
BRANCH  25  28
ATOM     28  CB  PHE A   3     -26.945 -22.118 -11.834  0.00  0.00    +0.054 C 
BRANCH  28  29
ATOM     29  CG  PHE A   3     -27.963 -23.097 -12.357  0.00  0.00    -0.020 A 
ATOM     30  CD2 PHE A   3     -27.624 -24.437 -12.566  0.00  0.00    -0.004 A 
ATOM     31  CE2 PHE A   3     -28.547 -25.344 -13.016  0.00  0.00    -0.000 A 
ATOM     32  CZ  PHE A   3     -29.851 -24.923 -13.270  0.00  0.00    -0.000 A 
ATOM     33  CE1 PHE A   3     -30.188 -23.594 -13.068  0.00  0.00    -0.000 A 
ATOM     34  CD1 PHE A   3     -29.232 -22.700 -12.614  0.00  0.00    -0.004 A 
ENDBRANCH  28  29
ENDBRANCH  25  28
ENDBRANCH  23  25
ENDBRANCH   1  21
BRANCH   1  35
ATOM     35  CB  HIS A   2     -30.284 -24.539  -9.278  0.00  0.00    +0.076 C 
BRANCH  35  36
ATOM     36  CG  HIS A   2     -31.412 -25.274  -8.653  0.00  0.00    +0.082 A 
ATOM     37  ND1 HIS A   2     -32.584 -24.652  -8.293  0.00  0.00    -0.227 NA
ATOM     38  CE1 HIS A   2     -33.415 -25.542  -7.787  0.00  0.00    +0.199 A 
ATOM     39  NE2 HIS A   2     -32.820 -26.716  -7.799  0.00  0.00    -0.221 NA
ATOM     40  CD2 HIS A   2     -31.559 -26.582  -8.335  0.00  0.00    +0.115 A 
ENDBRANCH  35  36
ENDBRANCH   1  35
TORSDOF 14
REMARK  Name = ../refined-set-2016/4j48/4j48_pocket.pdb
REMARK  108 active torsions:
REMARK  status: ('A' for Active; 'I' for Inactive)
REMARK    1  A    between atoms: _1  and  _3
REMARK    2  A    between atoms: _3  and  _4
REMARK    3  A    between atoms: _3  and  _6
REMARK    4  A    between atoms: _6  and  _7
REMARK    5  A    between atoms: _10  and  _12
REMARK    6  A    between atoms: _12  and  _13
REMARK    7  A    between atoms: _12  and  _15
REMARK    8  A    between atoms: _15  and  _16
REMARK    9  A    between atoms: _19  and  _21
REMARK   10  A    between atoms: _21  and  _22
REMARK   11  A    between atoms: _21  and  _24
REMARK   12  A    between atoms: _24  and  _25
REMARK   13  A    between atoms: _28  and  _30
REMARK   14  A    between atoms: _30  and  _31
REMARK   15  A    between atoms: _30  and  _33
REMARK   16  A    between atoms: _33  and  _34
REMARK   17  A    between atoms: _37  and  _39
REMARK   18  A    between atoms: _39  and  _40
REMARK   19  A    between atoms: _39  and  _42
REMARK   20  A    between atoms: _42  and  _43
REMARK   21  A    between atoms: _46  and  _48
REMARK   22  A    between atoms: _48  and  _49
REMARK   23  A    between atoms: _48  and  _51
REMARK   24  A    between atoms: _51  and  _52
REMARK   25  A    between atoms: _52  and  _53
REMARK   26  A    between atoms: _58  and  _60
REMARK   27  A    between atoms: _60  and  _61
REMARK   28  A    between atoms: _60  and  _63
REMARK   29  A    between atoms: _66  and  _68
REMARK   30  A    between atoms: _68  and  _69
REMARK   31  A    between atoms: _68  and  _71
REMARK   32  A    between atoms: _71  and  _72
REMARK   33  A    between atoms: _72  and  _73
REMARK   34  A    between atoms: _78  and  _80
REMARK   35  A    between atoms: _80  and  _81
REMARK   36  A    between atoms: _83  and  _85
REMARK   37  A    between atoms: _85  and  _86
REMARK   38  A    between atoms: _85  and  _88
REMARK   39  A    between atoms: _88  and  _89
REMARK   40  A    between atoms: _89  and  _90
REMARK   41  A    between atoms: _90  and  _91
REMARK   42  A    between atoms: _91  and  _92
REMARK   43  A    between atoms: _96  and  _98
REMARK   44  A    between atoms: _98  and  _99
REMARK   45  A    between atoms: _98  and  _101
REMARK   46  A    between atoms: _101  and  _102
REMARK   47  A    between atoms: _105  and  _107
REMARK   48  A    between atoms: _107  and  _108
REMARK   49  A    between atoms: _107  and  _110
REMARK   50  A    between atoms: _110  and  _111
REMARK   51  A    between atoms: _111  and  _112
REMARK   52  A    between atoms: _112  and  _113
REMARK   53  A    between atoms: _113  and  _114
REMARK   54  A    between atoms: _118  and  _120
REMARK   55  A    between atoms: _120  and  _121
REMARK   56  A    between atoms: _120  and  _123
REMARK   57  A    between atoms: _123  and  _124
REMARK   58  A    between atoms: _129  and  _131
REMARK   59  A    between atoms: _131  and  _132
REMARK   60  A    between atoms: _131  and  _134
REMARK   61  A    between atoms: _134  and  _135
REMARK   62  A    between atoms: _145  and  _147
REMARK   63  A    between atoms: _147  and  _148
REMARK   64  A    between atoms: _147  and  _150
REMARK   65  A    between atoms: _150  and  _151
REMARK   66  A    between atoms: _151  and  _152
REMARK   67  A    between atoms: _156  and  _157
REMARK   68  A    between atoms: _162  and  _164
REMARK   69  A    between atoms: _164  and  _165
REMARK   70  A    between atoms: _167  and  _169
REMARK   71  A    between atoms: _169  and  _170
REMARK   72  A    between atoms: _169  and  _172
REMARK   73  A    between atoms: _172  and  _173
REMARK   74  A    between atoms: _176  and  _178
REMARK   75  A    between atoms: _178  and  _179
REMARK   76  A    between atoms: _178  and  _181
REMARK   77  A    between atoms: _181  and  _182
REMARK   78  A    between atoms: _182  and  _183
REMARK   79  A    between atoms: _183  and  _184
REMARK   80  A    between atoms: _193  and  _195
REMARK   81  A    between atoms: _195  and  _196
REMARK   82  A    between atoms: _199  and  _201
REMARK   83  A    between atoms: _201  and  _202
REMARK   84  A    between atoms: _201  and  _204
REMARK   85  A    between atoms: _204  and  _205
REMARK   86  A    between atoms: _207  and  _209
REMARK   87  A    between atoms: _209  and  _210
REMARK   88  A    between atoms: _209  and  _212
REMARK   89  A    between atoms: _212  and  _213
REMARK   90  A    between atoms: _213  and  _214
REMARK   91  A    between atoms: _217  and  _219
REMARK   92  A    between atoms: _219  and  _220
REMARK   93  A    between atoms: _219  and  _222
REMARK   94  A    between atoms: _222  and  _223
REMARK   95  A    between atoms: _228  and  _230
REMARK   96  A    between atoms: _230  and  _231
REMARK   97  A    between atoms: _230  and  _233
REMARK   98  A    between atoms: _233  and  _234
REMARK   99  A    between atoms: _234  and  _235
REMARK  100  A    between atoms: _235  and  _236
REMARK  101  A    between atoms: _245  and  _247
REMARK  102  A    between atoms: _247  and  _248
REMARK  103  A    between atoms: _247  and  _250
REMARK  104  A    between atoms: _250  and  _251
REMARK  105  A    between atoms: _256  and  _258
REMARK  106  A    between atoms: _258  and  _259
REMARK  107  A    between atoms: _258  and  _261
REMARK  108  A    between atoms: _261  and  _262
REMARK                            x       y       z     vdW  Elec       q    Type
REMARK                         _______ _______ _______ _____ _____    ______ ____
ROOT
ATOM      1  O   HOH     1     -40.362 -28.722  -8.115  0.00  0.00    +0.000 OA
ENDROOT
TORSDOF 0
REMARK  Name = ../refined-set-2016/4j48/4j48_pocket.pdb
REMARK  108 active torsions:
REMARK  status: ('A' for Active; 'I' for Inactive)
REMARK    1  A    between atoms: _1  and  _3
REMARK    2  A    between atoms: _3  and  _4
REMARK    3  A    between atoms: _3  and  _6
REMARK    4  A    between atoms: _6  and  _7
REMARK    5  A    between atoms: _10  and  _12
REMARK    6  A    between atoms: _12  and  _13
REMARK    7  A    between atoms: _12  and  _15
REMARK    8  A    between atoms: _15  and  _16
REMARK    9  A    between atoms: _19  and  _21
REMARK   10  A    between atoms: _21  and  _22
REMARK   11  A    between atoms: _21  and  _24
REMARK   12  A    between atoms: _24  and  _25
REMARK   13  A    between atoms: _28  and  _30
REMARK   14  A    between atoms: _30  and  _31
REMARK   15  A    between atoms: _30  and  _33
REMARK   16  A    between atoms: _33  and  _34
REMARK   17  A    between atoms: _37  and  _39
REMARK   18  A    between atoms: _39  and  _40
REMARK   19  A    between atoms: _39  and  _42
REMARK   20  A    between atoms: _42  and  _43
REMARK   21  A    between atoms: _46  and  _48
REMARK   22  A    between atoms: _48  and  _49
REMARK   23  A    between atoms: _48  and  _51
REMARK   24  A    between atoms: _51  and  _52
REMARK   25  A    between atoms: _52  and  _53
REMARK   26  A    between atoms: _58  and  _60
REMARK   27  A    between atoms: _60  and  _61
REMARK   28  A    between atoms: _60  and  _63
REMARK   29  A    between atoms: _66  and  _68
REMARK   30  A    between atoms: _68  and  _69
REMARK   31  A    between atoms: _68  and  _71
REMARK   32  A    between atoms: _71  and  _72
REMARK   33  A    between atoms: _72  and  _73
REMARK   34  A    between atoms: _78  and  _80
REMARK   35  A    between atoms: _80  and  _81
REMARK   36  A    between atoms: _83  and  _85
REMARK   37  A    between atoms: _85  and  _86
REMARK   38  A    between atoms: _85  and  _88
REMARK   39  A    between atoms: _88  and  _89
REMARK   40  A    between atoms: _89  and  _90
REMARK   41  A    between atoms: _90  and  _91
REMARK   42  A    between atoms: _91  and  _92
REMARK   43  A    between atoms: _96  and  _98
REMARK   44  A    between atoms: _98  and  _99
REMARK   45  A    between atoms: _98  and  _101
REMARK   46  A    between atoms: _101  and  _102
REMARK   47  A    between atoms: _105  and  _107
REMARK   48  A    between atoms: _107  and  _108
REMARK   49  A    between atoms: _107  and  _110
REMARK   50  A    between atoms: _110  and  _111
REMARK   51  A    between atoms: _111  and  _112
REMARK   52  A    between atoms: _112  and  _113
REMARK   53  A    between atoms: _113  and  _114
REMARK   54  A    between atoms: _118  and  _120
REMARK   55  A    between atoms: _120  and  _121
REMARK   56  A    between atoms: _120  and  _123
REMARK   57  A    between atoms: _123  and  _124
REMARK   58  A    between atoms: _129  and  _131
REMARK   59  A    between atoms: _131  and  _132
REMARK   60  A    between atoms: _131  and  _134
REMARK   61  A    between atoms: _134  and  _135
REMARK   62  A    between atoms: _145  and  _147
REMARK   63  A    between atoms: _147  and  _148
REMARK   64  A    between atoms: _147  and  _150
REMARK   65  A    between atoms: _150  and  _151
REMARK   66  A    between atoms: _151  and  _152
REMARK   67  A    between atoms: _156  and  _157
REMARK   68  A    between atoms: _162  and  _164
REMARK   69  A    between atoms: _164  and  _165
REMARK   70  A    between atoms: _167  and  _169
REMARK   71  A    between atoms: _169  and  _170
REMARK   72  A    between atoms: _169  and  _172
REMARK   73  A    between atoms: _172  and  _173
REMARK   74  A    between atoms: _176  and  _178
REMARK   75  A    between atoms: _178  and  _179
REMARK   76  A    between atoms: _178  and  _181
REMARK   77  A    between atoms: _181  and  _182
REMARK   78  A    between atoms: _182  and  _183
REMARK   79  A    between atoms: _183  and  _184
REMARK   80  A    between atoms: _193  and  _195
REMARK   81  A    between atoms: _195  and  _196
REMARK   82  A    between atoms: _199  and  _201
REMARK   83  A    between atoms: _201  and  _202
REMARK   84  A    between atoms: _201  and  _204
REMARK   85  A    between atoms: _204  and  _205
REMARK   86  A    between atoms: _207  and  _209
REMARK   87  A    between atoms: _209  and  _210
REMARK   88  A    between atoms: _209  and  _212
REMARK   89  A    between atoms: _212  and  _213
REMARK   90  A    between atoms: _213  and  _214
REMARK   91  A    between atoms: _217  and  _219
REMARK   92  A    between atoms: _219  and  _220
REMARK   93  A    between atoms: _219  and  _222
REMARK   94  A    between atoms: _222  and  _223
REMARK   95  A    between atoms: _228  and  _230
REMARK   96  A    between atoms: _230  and  _231
REMARK   97  A    between atoms: _230  and  _233
REMARK   98  A    between atoms: _233  and  _234
REMARK   99  A    between atoms: _234  and  _235
REMARK  100  A    between atoms: _235  and  _236
REMARK  101  A    between atoms: _245  and  _247
REMARK  102  A    between atoms: _247  and  _248
REMARK  103  A    between atoms: _247  and  _250
REMARK  104  A    between atoms: _250  and  _251
REMARK  105  A    between atoms: _256  and  _258
REMARK  106  A    between atoms: _258  and  _259
REMARK  107  A    between atoms: _258  and  _261
REMARK  108  A    between atoms: _261  and  _262
REMARK                            x       y       z     vdW  Elec       q    Type
REMARK                         _______ _______ _______ _____ _____    ______ ____
ROOT
ATOM      1  O   HOH     1     -38.440 -24.902  -4.026  0.00  0.00    +0.000 OA
ENDROOT
TORSDOF 0
REMARK  Name = ../refined-set-2016/4j48/4j48_pocket.pdb
REMARK  108 active torsions:
REMARK  status: ('A' for Active; 'I' for Inactive)
REMARK    1  A    between atoms: _1  and  _3
REMARK    2  A    between atoms: _3  and  _4
REMARK    3  A    between atoms: _3  and  _6
REMARK    4  A    between atoms: _6  and  _7
REMARK    5  A    between atoms: _10  and  _12
REMARK    6  A    between atoms: _12  and  _13
REMARK    7  A    between atoms: _12  and  _15
REMARK    8  A    between atoms: _15  and  _16
REMARK    9  A    between atoms: _19  and  _21
REMARK   10  A    between atoms: _21  and  _22
REMARK   11  A    between atoms: _21  and  _24
REMARK   12  A    between atoms: _24  and  _25
REMARK   13  A    between atoms: _28  and  _30
REMARK   14  A    between atoms: _30  and  _31
REMARK   15  A    between atoms: _30  and  _33
REMARK   16  A    between atoms: _33  and  _34
REMARK   17  A    between atoms: _37  and  _39
REMARK   18  A    between atoms: _39  and  _40
REMARK   19  A    between atoms: _39  and  _42
REMARK   20  A    between atoms: _42  and  _43
REMARK   21  A    between atoms: _46  and  _48
REMARK   22  A    between atoms: _48  and  _49
REMARK   23  A    between atoms: _48  and  _51
REMARK   24  A    between atoms: _51  and  _52
REMARK   25  A    between atoms: _52  and  _53
REMARK   26  A    between atoms: _58  and  _60
REMARK   27  A    between atoms: _60  and  _61
REMARK   28  A    between atoms: _60  and  _63
REMARK   29  A    between atoms: _66  and  _68
REMARK   30  A    between atoms: _68  and  _69
REMARK   31  A    between atoms: _68  and  _71
REMARK   32  A    between atoms: _71  and  _72
REMARK   33  A    between atoms: _72  and  _73
REMARK   34  A    between atoms: _78  and  _80
REMARK   35  A    between atoms: _80  and  _81
REMARK   36  A    between atoms: _83  and  _85
REMARK   37  A    between atoms: _85  and  _86
REMARK   38  A    between atoms: _85  and  _88
REMARK   39  A    between atoms: _88  and  _89
REMARK   40  A    between atoms: _89  and  _90
REMARK   41  A    between atoms: _90  and  _91
REMARK   42  A    between atoms: _91  and  _92
REMARK   43  A    between atoms: _96  and  _98
REMARK   44  A    between atoms: _98  and  _99
REMARK   45  A    between atoms: _98  and  _101
REMARK   46  A    between atoms: _101  and  _102
REMARK   47  A    between atoms: _105  and  _107
REMARK   48  A    between atoms: _107  and  _108
REMARK   49  A    between atoms: _107  and  _110
REMARK   50  A    between atoms: _110  and  _111
REMARK   51  A    between atoms: _111  and  _112
REMARK   52  A    between atoms: _112  and  _113
REMARK   53  A    between atoms: _113  and  _114
REMARK   54  A    between atoms: _118  and  _120
REMARK   55  A    between atoms: _120  and  _121
REMARK   56  A    between atoms: _120  and  _123
REMARK   57  A    between atoms: _123  and  _124
REMARK   58  A    between atoms: _129  and  _131
REMARK   59  A    between atoms: _131  and  _132
REMARK   60  A    between atoms: _131  and  _134
REMARK   61  A    between atoms: _134  and  _135
REMARK   62  A    between atoms: _145  and  _147
REMARK   63  A    between atoms: _147  and  _148
REMARK   64  A    between atoms: _147  and  _150
REMARK   65  A    between atoms: _150  and  _151
REMARK   66  A    between atoms: _151  and  _152
REMARK   67  A    between atoms: _156  and  _157
REMARK   68  A    between atoms: _162  and  _164
REMARK   69  A    between atoms: _164  and  _165
REMARK   70  A    between atoms: _167  and  _169
REMARK   71  A    between atoms: _169  and  _170
REMARK   72  A    between atoms: _169  and  _172
REMARK   73  A    between atoms: _172  and  _173
REMARK   74  A    between atoms: _176  and  _178
REMARK   75  A    between atoms: _178  and  _179
REMARK   76  A    between atoms: _178  and  _181
REMARK   77  A    between atoms: _181  and  _182
REMARK   78  A    between atoms: _182  and  _183
REMARK   79  A    between atoms: _183  and  _184
REMARK   80  A    between atoms: _193  and  _195
REMARK   81  A    between atoms: _195  and  _196
REMARK   82  A    between atoms: _199  and  _201
REMARK   83  A    between atoms: _201  and  _202
REMARK   84  A    between atoms: _201  and  _204
REMARK   85  A    between atoms: _204  and  _205
REMARK   86  A    between atoms: _207  and  _209
REMARK   87  A    between atoms: _209  and  _210
REMARK   88  A    between atoms: _209  and  _212
REMARK   89  A    between atoms: _212  and  _213
REMARK   90  A    between atoms: _213  and  _214
REMARK   91  A    between atoms: _217  and  _219
REMARK   92  A    between atoms: _219  and  _220
REMARK   93  A    between atoms: _219  and  _222
REMARK   94  A    between atoms: _222  and  _223
REMARK   95  A    between atoms: _228  and  _230
REMARK   96  A    between atoms: _230  and  _231
REMARK   97  A    between atoms: _230  and  _233
REMARK   98  A    between atoms: _233  and  _234
REMARK   99  A    between atoms: _234  and  _235
REMARK  100  A    between atoms: _235  and  _236
REMARK  101  A    between atoms: _245  and  _247
REMARK  102  A    between atoms: _247  and  _248
REMARK  103  A    between atoms: _247  and  _250
REMARK  104  A    between atoms: _250  and  _251
REMARK  105  A    between atoms: _256  and  _258
REMARK  106  A    between atoms: _258  and  _259
REMARK  107  A    between atoms: _258  and  _261
REMARK  108  A    between atoms: _261  and  _262
REMARK                            x       y       z     vdW  Elec       q    Type
REMARK                         _______ _______ _______ _____ _____    ______ ____
ROOT
ATOM      1  O   HOH     1     -38.688 -27.791  -6.168  0.00  0.00    +0.000 OA
ENDROOT
TORSDOF 0
REMARK  Name = ../refined-set-2016/4j48/4j48_pocket.pdb
REMARK  108 active torsions:
REMARK  status: ('A' for Active; 'I' for Inactive)
REMARK    1  A    between atoms: _1  and  _3
REMARK    2  A    between atoms: _3  and  _4
REMARK    3  A    between atoms: _3  and  _6
REMARK    4  A    between atoms: _6  and  _7
REMARK    5  A    between atoms: _10  and  _12
REMARK    6  A    between atoms: _12  and  _13
REMARK    7  A    between atoms: _12  and  _15
REMARK    8  A    between atoms: _15  and  _16
REMARK    9  A    between atoms: _19  and  _21
REMARK   10  A    between atoms: _21  and  _22
REMARK   11  A    between atoms: _21  and  _24
REMARK   12  A    between atoms: _24  and  _25
REMARK   13  A    between atoms: _28  and  _30
REMARK   14  A    between atoms: _30  and  _31
REMARK   15  A    between atoms: _30  and  _33
REMARK   16  A    between atoms: _33  and  _34
REMARK   17  A    between atoms: _37  and  _39
REMARK   18  A    between atoms: _39  and  _40
REMARK   19  A    between atoms: _39  and  _42
REMARK   20  A    between atoms: _42  and  _43
REMARK   21  A    between atoms: _46  and  _48
REMARK   22  A    between atoms: _48  and  _49
REMARK   23  A    between atoms: _48  and  _51
REMARK   24  A    between atoms: _51  and  _52
REMARK   25  A    between atoms: _52  and  _53
REMARK   26  A    between atoms: _58  and  _60
REMARK   27  A    between atoms: _60  and  _61
REMARK   28  A    between atoms: _60  and  _63
REMARK   29  A    between atoms: _66  and  _68
REMARK   30  A    between atoms: _68  and  _69
REMARK   31  A    between atoms: _68  and  _71
REMARK   32  A    between atoms: _71  and  _72
REMARK   33  A    between atoms: _72  and  _73
REMARK   34  A    between atoms: _78  and  _80
REMARK   35  A    between atoms: _80  and  _81
REMARK   36  A    between atoms: _83  and  _85
REMARK   37  A    between atoms: _85  and  _86
REMARK   38  A    between atoms: _85  and  _88
REMARK   39  A    between atoms: _88  and  _89
REMARK   40  A    between atoms: _89  and  _90
REMARK   41  A    between atoms: _90  and  _91
REMARK   42  A    between atoms: _91  and  _92
REMARK   43  A    between atoms: _96  and  _98
REMARK   44  A    between atoms: _98  and  _99
REMARK   45  A    between atoms: _98  and  _101
REMARK   46  A    between atoms: _101  and  _102
REMARK   47  A    between atoms: _105  and  _107
REMARK   48  A    between atoms: _107  and  _108
REMARK   49  A    between atoms: _107  and  _110
REMARK   50  A    between atoms: _110  and  _111
REMARK   51  A    between atoms: _111  and  _112
REMARK   52  A    between atoms: _112  and  _113
REMARK   53  A    between atoms: _113  and  _114
REMARK   54  A    between atoms: _118  and  _120
REMARK   55  A    between atoms: _120  and  _121
REMARK   56  A    between atoms: _120  and  _123
REMARK   57  A    between atoms: _123  and  _124
REMARK   58  A    between atoms: _129  and  _131
REMARK   59  A    between atoms: _131  and  _132
REMARK   60  A    between atoms: _131  and  _134
REMARK   61  A    between atoms: _134  and  _135
REMARK   62  A    between atoms: _145  and  _147
REMARK   63  A    between atoms: _147  and  _148
REMARK   64  A    between atoms: _147  and  _150
REMARK   65  A    between atoms: _150  and  _151
REMARK   66  A    between atoms: _151  and  _152
REMARK   67  A    between atoms: _156  and  _157
REMARK   68  A    between atoms: _162  and  _164
REMARK   69  A    between atoms: _164  and  _165
REMARK   70  A    between atoms: _167  and  _169
REMARK   71  A    between atoms: _169  and  _170
REMARK   72  A    between atoms: _169  and  _172
REMARK   73  A    between atoms: _172  and  _173
REMARK   74  A    between atoms: _176  and  _178
REMARK   75  A    between atoms: _178  and  _179
REMARK   76  A    between atoms: _178  and  _181
REMARK   77  A    between atoms: _181  and  _182
REMARK   78  A    between atoms: _182  and  _183
REMARK   79  A    between atoms: _183  and  _184
REMARK   80  A    between atoms: _193  and  _195
REMARK   81  A    between atoms: _195  and  _196
REMARK   82  A    between atoms: _199  and  _201
REMARK   83  A    between atoms: _201  and  _202
REMARK   84  A    between atoms: _201  and  _204
REMARK   85  A    between atoms: _204  and  _205
REMARK   86  A    between atoms: _207  and  _209
REMARK   87  A    between atoms: _209  and  _210
REMARK   88  A    between atoms: _209  and  _212
REMARK   89  A    between atoms: _212  and  _213
REMARK   90  A    between atoms: _213  and  _214
REMARK   91  A    between atoms: _217  and  _219
REMARK   92  A    between atoms: _219  and  _220
REMARK   93  A    between atoms: _219  and  _222
REMARK   94  A    between atoms: _222  and  _223
REMARK   95  A    between atoms: _228  and  _230
REMARK   96  A    between atoms: _230  and  _231
REMARK   97  A    between atoms: _230  and  _233
REMARK   98  A    between atoms: _233  and  _234
REMARK   99  A    between atoms: _234  and  _235
REMARK  100  A    between atoms: _235  and  _236
REMARK  101  A    between atoms: _245  and  _247
REMARK  102  A    between atoms: _247  and  _248
REMARK  103  A    between atoms: _247  and  _250
REMARK  104  A    between atoms: _250  and  _251
REMARK  105  A    between atoms: _256  and  _258
REMARK  106  A    between atoms: _258  and  _259
REMARK  107  A    between atoms: _258  and  _261
REMARK  108  A    between atoms: _261  and  _262
REMARK                            x       y       z     vdW  Elec       q    Type
REMARK                         _______ _______ _______ _____ _____    ______ ____
ROOT
ATOM      1  O   HOH     1     -30.282 -28.196  -5.302  0.00  0.00    +0.000 OA
ENDROOT
TORSDOF 0
REMARK  Name = ../refined-set-2016/4j48/4j48_pocket.pdb
REMARK  108 active torsions:
REMARK  status: ('A' for Active; 'I' for Inactive)
REMARK    1  A    between atoms: _1  and  _3
REMARK    2  A    between atoms: _3  and  _4
REMARK    3  A    between atoms: _3  and  _6
REMARK    4  A    between atoms: _6  and  _7
REMARK    5  A    between atoms: _10  and  _12
REMARK    6  A    between atoms: _12  and  _13
REMARK    7  A    between atoms: _12  and  _15
REMARK    8  A    between atoms: _15  and  _16
REMARK    9  A    between atoms: _19  and  _21
REMARK   10  A    between atoms: _21  and  _22
REMARK   11  A    between atoms: _21  and  _24
REMARK   12  A    between atoms: _24  and  _25
REMARK   13  A    between atoms: _28  and  _30
REMARK   14  A    between atoms: _30  and  _31
REMARK   15  A    between atoms: _30  and  _33
REMARK   16  A    between atoms: _33  and  _34
REMARK   17  A    between atoms: _37  and  _39
REMARK   18  A    between atoms: _39  and  _40
REMARK   19  A    between atoms: _39  and  _42
REMARK   20  A    between atoms: _42  and  _43
REMARK   21  A    between atoms: _46  and  _48
REMARK   22  A    between atoms: _48  and  _49
REMARK   23  A    between atoms: _48  and  _51
REMARK   24  A    between atoms: _51  and  _52
REMARK   25  A    between atoms: _52  and  _53
REMARK   26  A    between atoms: _58  and  _60
REMARK   27  A    between atoms: _60  and  _61
REMARK   28  A    between atoms: _60  and  _63
REMARK   29  A    between atoms: _66  and  _68
REMARK   30  A    between atoms: _68  and  _69
REMARK   31  A    between atoms: _68  and  _71
REMARK   32  A    between atoms: _71  and  _72
REMARK   33  A    between atoms: _72  and  _73
REMARK   34  A    between atoms: _78  and  _80
REMARK   35  A    between atoms: _80  and  _81
REMARK   36  A    between atoms: _83  and  _85
REMARK   37  A    between atoms: _85  and  _86
REMARK   38  A    between atoms: _85  and  _88
REMARK   39  A    between atoms: _88  and  _89
REMARK   40  A    between atoms: _89  and  _90
REMARK   41  A    between atoms: _90  and  _91
REMARK   42  A    between atoms: _91  and  _92
REMARK   43  A    between atoms: _96  and  _98
REMARK   44  A    between atoms: _98  and  _99
REMARK   45  A    between atoms: _98  and  _101
REMARK   46  A    between atoms: _101  and  _102
REMARK   47  A    between atoms: _105  and  _107
REMARK   48  A    between atoms: _107  and  _108
REMARK   49  A    between atoms: _107  and  _110
REMARK   50  A    between atoms: _110  and  _111
REMARK   51  A    between atoms: _111  and  _112
REMARK   52  A    between atoms: _112  and  _113
REMARK   53  A    between atoms: _113  and  _114
REMARK   54  A    between atoms: _118  and  _120
REMARK   55  A    between atoms: _120  and  _121
REMARK   56  A    between atoms: _120  and  _123
REMARK   57  A    between atoms: _123  and  _124
REMARK   58  A    between atoms: _129  and  _131
REMARK   59  A    between atoms: _131  and  _132
REMARK   60  A    between atoms: _131  and  _134
REMARK   61  A    between atoms: _134  and  _135
REMARK   62  A    between atoms: _145  and  _147
REMARK   63  A    between atoms: _147  and  _148
REMARK   64  A    between atoms: _147  and  _150
REMARK   65  A    between atoms: _150  and  _151
REMARK   66  A    between atoms: _151  and  _152
REMARK   67  A    between atoms: _156  and  _157
REMARK   68  A    between atoms: _162  and  _164
REMARK   69  A    between atoms: _164  and  _165
REMARK   70  A    between atoms: _167  and  _169
REMARK   71  A    between atoms: _169  and  _170
REMARK   72  A    between atoms: _169  and  _172
REMARK   73  A    between atoms: _172  and  _173
REMARK   74  A    between atoms: _176  and  _178
REMARK   75  A    between atoms: _178  and  _179
REMARK   76  A    between atoms: _178  and  _181
REMARK   77  A    between atoms: _181  and  _182
REMARK   78  A    between atoms: _182  and  _183
REMARK   79  A    between atoms: _183  and  _184
REMARK   80  A    between atoms: _193  and  _195
REMARK   81  A    between atoms: _195  and  _196
REMARK   82  A    between atoms: _199  and  _201
REMARK   83  A    between atoms: _201  and  _202
REMARK   84  A    between atoms: _201  and  _204
REMARK   85  A    between atoms: _204  and  _205
REMARK   86  A    between atoms: _207  and  _209
REMARK   87  A    between atoms: _209  and  _210
REMARK   88  A    between atoms: _209  and  _212
REMARK   89  A    between atoms: _212  and  _213
REMARK   90  A    between atoms: _213  and  _214
REMARK   91  A    between atoms: _217  and  _219
REMARK   92  A    between atoms: _219  and  _220
REMARK   93  A    between atoms: _219  and  _222
REMARK   94  A    between atoms: _222  and  _223
REMARK   95  A    between atoms: _228  and  _230
REMARK   96  A    between atoms: _230  and  _231
REMARK   97  A    between atoms: _230  and  _233
REMARK   98  A    between atoms: _233  and  _234
REMARK   99  A    between atoms: _234  and  _235
REMARK  100  A    between atoms: _235  and  _236
REMARK  101  A    between atoms: _245  and  _247
REMARK  102  A    between atoms: _247  and  _248
REMARK  103  A    between atoms: _247  and  _250
REMARK  104  A    between atoms: _250  and  _251
REMARK  105  A    between atoms: _256  and  _258
REMARK  106  A    between atoms: _258  and  _259
REMARK  107  A    between atoms: _258  and  _261
REMARK  108  A    between atoms: _261  and  _262
REMARK                            x       y       z     vdW  Elec       q    Type
REMARK                         _______ _______ _______ _____ _____    ______ ____
ROOT
ATOM      1  O   HOH     1     -29.930 -27.629 -16.404  0.00  0.00    +0.000 OA
ENDROOT
TORSDOF 0
REMARK  Name = ../refined-set-2016/4j48/4j48_pocket.pdb
REMARK  108 active torsions:
REMARK  status: ('A' for Active; 'I' for Inactive)
REMARK    1  A    between atoms: _1  and  _3
REMARK    2  A    between atoms: _3  and  _4
REMARK    3  A    between atoms: _3  and  _6
REMARK    4  A    between atoms: _6  and  _7
REMARK    5  A    between atoms: _10  and  _12
REMARK    6  A    between atoms: _12  and  _13
REMARK    7  A    between atoms: _12  and  _15
REMARK    8  A    between atoms: _15  and  _16
REMARK    9  A    between atoms: _19  and  _21
REMARK   10  A    between atoms: _21  and  _22
REMARK   11  A    between atoms: _21  and  _24
REMARK   12  A    between atoms: _24  and  _25
REMARK   13  A    between atoms: _28  and  _30
REMARK   14  A    between atoms: _30  and  _31
REMARK   15  A    between atoms: _30  and  _33
REMARK   16  A    between atoms: _33  and  _34
REMARK   17  A    between atoms: _37  and  _39
REMARK   18  A    between atoms: _39  and  _40
REMARK   19  A    between atoms: _39  and  _42
REMARK   20  A    between atoms: _42  and  _43
REMARK   21  A    between atoms: _46  and  _48
REMARK   22  A    between atoms: _48  and  _49
REMARK   23  A    between atoms: _48  and  _51
REMARK   24  A    between atoms: _51  and  _52
REMARK   25  A    between atoms: _52  and  _53
REMARK   26  A    between atoms: _58  and  _60
REMARK   27  A    between atoms: _60  and  _61
REMARK   28  A    between atoms: _60  and  _63
REMARK   29  A    between atoms: _66  and  _68
REMARK   30  A    between atoms: _68  and  _69
REMARK   31  A    between atoms: _68  and  _71
REMARK   32  A    between atoms: _71  and  _72
REMARK   33  A    between atoms: _72  and  _73
REMARK   34  A    between atoms: _78  and  _80
REMARK   35  A    between atoms: _80  and  _81
REMARK   36  A    between atoms: _83  and  _85
REMARK   37  A    between atoms: _85  and  _86
REMARK   38  A    between atoms: _85  and  _88
REMARK   39  A    between atoms: _88  and  _89
REMARK   40  A    between atoms: _89  and  _90
REMARK   41  A    between atoms: _90  and  _91
REMARK   42  A    between atoms: _91  and  _92
REMARK   43  A    between atoms: _96  and  _98
REMARK   44  A    between atoms: _98  and  _99
REMARK   45  A    between atoms: _98  and  _101
REMARK   46  A    between atoms: _101  and  _102
REMARK   47  A    between atoms: _105  and  _107
REMARK   48  A    between atoms: _107  and  _108
REMARK   49  A    between atoms: _107  and  _110
REMARK   50  A    between atoms: _110  and  _111
REMARK   51  A    between atoms: _111  and  _112
REMARK   52  A    between atoms: _112  and  _113
REMARK   53  A    between atoms: _113  and  _114
REMARK   54  A    between atoms: _118  and  _120
REMARK   55  A    between atoms: _120  and  _121
REMARK   56  A    between atoms: _120  and  _123
REMARK   57  A    between atoms: _123  and  _124
REMARK   58  A    between atoms: _129  and  _131
REMARK   59  A    between atoms: _131  and  _132
REMARK   60  A    between atoms: _131  and  _134
REMARK   61  A    between atoms: _134  and  _135
REMARK   62  A    between atoms: _145  and  _147
REMARK   63  A    between atoms: _147  and  _148
REMARK   64  A    between atoms: _147  and  _150
REMARK   65  A    between atoms: _150  and  _151
REMARK   66  A    between atoms: _151  and  _152
REMARK   67  A    between atoms: _156  and  _157
REMARK   68  A    between atoms: _162  and  _164
REMARK   69  A    between atoms: _164  and  _165
REMARK   70  A    between atoms: _167  and  _169
REMARK   71  A    between atoms: _169  and  _170
REMARK   72  A    between atoms: _169  and  _172
REMARK   73  A    between atoms: _172  and  _173
REMARK   74  A    between atoms: _176  and  _178
REMARK   75  A    between atoms: _178  and  _179
REMARK   76  A    between atoms: _178  and  _181
REMARK   77  A    between atoms: _181  and  _182
REMARK   78  A    between atoms: _182  and  _183
REMARK   79  A    between atoms: _183  and  _184
REMARK   80  A    between atoms: _193  and  _195
REMARK   81  A    between atoms: _195  and  _196
REMARK   82  A    between atoms: _199  and  _201
REMARK   83  A    between atoms: _201  and  _202
REMARK   84  A    between atoms: _201  and  _204
REMARK   85  A    between atoms: _204  and  _205
REMARK   86  A    between atoms: _207  and  _209
REMARK   87  A    between atoms: _209  and  _210
REMARK   88  A    between atoms: _209  and  _212
REMARK   89  A    between atoms: _212  and  _213
REMARK   90  A    between atoms: _213  and  _214
REMARK   91  A    between atoms: _217  and  _219
REMARK   92  A    between atoms: _219  and  _220
REMARK   93  A    between atoms: _219  and  _222
REMARK   94  A    between atoms: _222  and  _223
REMARK   95  A    between atoms: _228  and  _230
REMARK   96  A    between atoms: _230  and  _231
REMARK   97  A    between atoms: _230  and  _233
REMARK   98  A    between atoms: _233  and  _234
REMARK   99  A    between atoms: _234  and  _235
REMARK  100  A    between atoms: _235  and  _236
REMARK  101  A    between atoms: _245  and  _247
REMARK  102  A    between atoms: _247  and  _248
REMARK  103  A    between atoms: _247  and  _250
REMARK  104  A    between atoms: _250  and  _251
REMARK  105  A    between atoms: _256  and  _258
REMARK  106  A    between atoms: _258  and  _259
REMARK  107  A    between atoms: _258  and  _261
REMARK  108  A    between atoms: _261  and  _262
REMARK                            x       y       z     vdW  Elec       q    Type
REMARK                         _______ _______ _______ _____ _____    ______ ____
ROOT
ATOM      1  O   HOH     1     -42.697 -28.298 -16.859  0.00  0.00    +0.000 OA
ENDROOT
TORSDOF 0
REMARK  Name = ../refined-set-2016/4j48/4j48_pocket.pdb
REMARK  108 active torsions:
REMARK  status: ('A' for Active; 'I' for Inactive)
REMARK    1  A    between atoms: _1  and  _3
REMARK    2  A    between atoms: _3  and  _4
REMARK    3  A    between atoms: _3  and  _6
REMARK    4  A    between atoms: _6  and  _7
REMARK    5  A    between atoms: _10  and  _12
REMARK    6  A    between atoms: _12  and  _13
REMARK    7  A    between atoms: _12  and  _15
REMARK    8  A    between atoms: _15  and  _16
REMARK    9  A    between atoms: _19  and  _21
REMARK   10  A    between atoms: _21  and  _22
REMARK   11  A    between atoms: _21  and  _24
REMARK   12  A    between atoms: _24  and  _25
REMARK   13  A    between atoms: _28  and  _30
REMARK   14  A    between atoms: _30  and  _31
REMARK   15  A    between atoms: _30  and  _33
REMARK   16  A    between atoms: _33  and  _34
REMARK   17  A    between atoms: _37  and  _39
REMARK   18  A    between atoms: _39  and  _40
REMARK   19  A    between atoms: _39  and  _42
REMARK   20  A    between atoms: _42  and  _43
REMARK   21  A    between atoms: _46  and  _48
REMARK   22  A    between atoms: _48  and  _49
REMARK   23  A    between atoms: _48  and  _51
REMARK   24  A    between atoms: _51  and  _52
REMARK   25  A    between atoms: _52  and  _53
REMARK   26  A    between atoms: _58  and  _60
REMARK   27  A    between atoms: _60  and  _61
REMARK   28  A    between atoms: _60  and  _63
REMARK   29  A    between atoms: _66  and  _68
REMARK   30  A    between atoms: _68  and  _69
REMARK   31  A    between atoms: _68  and  _71
REMARK   32  A    between atoms: _71  and  _72
REMARK   33  A    between atoms: _72  and  _73
REMARK   34  A    between atoms: _78  and  _80
REMARK   35  A    between atoms: _80  and  _81
REMARK   36  A    between atoms: _83  and  _85
REMARK   37  A    between atoms: _85  and  _86
REMARK   38  A    between atoms: _85  and  _88
REMARK   39  A    between atoms: _88  and  _89
REMARK   40  A    between atoms: _89  and  _90
REMARK   41  A    between atoms: _90  and  _91
REMARK   42  A    between atoms: _91  and  _92
REMARK   43  A    between atoms: _96  and  _98
REMARK   44  A    between atoms: _98  and  _99
REMARK   45  A    between atoms: _98  and  _101
REMARK   46  A    between atoms: _101  and  _102
REMARK   47  A    between atoms: _105  and  _107
REMARK   48  A    between atoms: _107  and  _108
REMARK   49  A    between atoms: _107  and  _110
REMARK   50  A    between atoms: _110  and  _111
REMARK   51  A    between atoms: _111  and  _112
REMARK   52  A    between atoms: _112  and  _113
REMARK   53  A    between atoms: _113  and  _114
REMARK   54  A    between atoms: _118  and  _120
REMARK   55  A    between atoms: _120  and  _121
REMARK   56  A    between atoms: _120  and  _123
REMARK   57  A    between atoms: _123  and  _124
REMARK   58  A    between atoms: _129  and  _131
REMARK   59  A    between atoms: _131  and  _132
REMARK   60  A    between atoms: _131  and  _134
REMARK   61  A    between atoms: _134  and  _135
REMARK   62  A    between atoms: _145  and  _147
REMARK   63  A    between atoms: _147  and  _148
REMARK   64  A    between atoms: _147  and  _150
REMARK   65  A    between atoms: _150  and  _151
REMARK   66  A    between atoms: _151  and  _152
REMARK   67  A    between atoms: _156  and  _157
REMARK   68  A    between atoms: _162  and  _164
REMARK   69  A    between atoms: _164  and  _165
REMARK   70  A    between atoms: _167  and  _169
REMARK   71  A    between atoms: _169  and  _170
REMARK   72  A    between atoms: _169  and  _172
REMARK   73  A    between atoms: _172  and  _173
REMARK   74  A    between atoms: _176  and  _178
REMARK   75  A    between atoms: _178  and  _179
REMARK   76  A    between atoms: _178  and  _181
REMARK   77  A    between atoms: _181  and  _182
REMARK   78  A    between atoms: _182  and  _183
REMARK   79  A    between atoms: _183  and  _184
REMARK   80  A    between atoms: _193  and  _195
REMARK   81  A    between atoms: _195  and  _196
REMARK   82  A    between atoms: _199  and  _201
REMARK   83  A    between atoms: _201  and  _202
REMARK   84  A    between atoms: _201  and  _204
REMARK   85  A    between atoms: _204  and  _205
REMARK   86  A    between atoms: _207  and  _209
REMARK   87  A    between atoms: _209  and  _210
REMARK   88  A    between atoms: _209  and  _212
REMARK   89  A    between atoms: _212  and  _213
REMARK   90  A    between atoms: _213  and  _214
REMARK   91  A    between atoms: _217  and  _219
REMARK   92  A    between atoms: _219  and  _220
REMARK   93  A    between atoms: _219  and  _222
REMARK   94  A    between atoms: _222  and  _223
REMARK   95  A    between atoms: _228  and  _230
REMARK   96  A    between atoms: _230  and  _231
REMARK   97  A    between atoms: _230  and  _233
REMARK   98  A    between atoms: _233  and  _234
REMARK   99  A    between atoms: _234  and  _235
REMARK  100  A    between atoms: _235  and  _236
REMARK  101  A    between atoms: _245  and  _247
REMARK  102  A    between atoms: _247  and  _248
REMARK  103  A    between atoms: _247  and  _250
REMARK  104  A    between atoms: _250  and  _251
REMARK  105  A    between atoms: _256  and  _258
REMARK  106  A    between atoms: _258  and  _259
REMARK  107  A    between atoms: _258  and  _261
REMARK  108  A    between atoms: _261  and  _262
REMARK                            x       y       z     vdW  Elec       q    Type
REMARK                         _______ _______ _______ _____ _____    ______ ____
ROOT
ATOM      1  O   HOH     1     -37.195 -19.779  -3.976  0.00  0.00    +0.000 OA
ENDROOT
TORSDOF 0
REMARK  Name = ../refined-set-2016/4j48/4j48_pocket.pdb
REMARK  108 active torsions:
REMARK  status: ('A' for Active; 'I' for Inactive)
REMARK    1  A    between atoms: _1  and  _3
REMARK    2  A    between atoms: _3  and  _4
REMARK    3  A    between atoms: _3  and  _6
REMARK    4  A    between atoms: _6  and  _7
REMARK    5  A    between atoms: _10  and  _12
REMARK    6  A    between atoms: _12  and  _13
REMARK    7  A    between atoms: _12  and  _15
REMARK    8  A    between atoms: _15  and  _16
REMARK    9  A    between atoms: _19  and  _21
REMARK   10  A    between atoms: _21  and  _22
REMARK   11  A    between atoms: _21  and  _24
REMARK   12  A    between atoms: _24  and  _25
REMARK   13  A    between atoms: _28  and  _30
REMARK   14  A    between atoms: _30  and  _31
REMARK   15  A    between atoms: _30  and  _33
REMARK   16  A    between atoms: _33  and  _34
REMARK   17  A    between atoms: _37  and  _39
REMARK   18  A    between atoms: _39  and  _40
REMARK   19  A    between atoms: _39  and  _42
REMARK   20  A    between atoms: _42  and  _43
REMARK   21  A    between atoms: _46  and  _48
REMARK   22  A    between atoms: _48  and  _49
REMARK   23  A    between atoms: _48  and  _51
REMARK   24  A    between atoms: _51  and  _52
REMARK   25  A    between atoms: _52  and  _53
REMARK   26  A    between atoms: _58  and  _60
REMARK   27  A    between atoms: _60  and  _61
REMARK   28  A    between atoms: _60  and  _63
REMARK   29  A    between atoms: _66  and  _68
REMARK   30  A    between atoms: _68  and  _69
REMARK   31  A    between atoms: _68  and  _71
REMARK   32  A    between atoms: _71  and  _72
REMARK   33  A    between atoms: _72  and  _73
REMARK   34  A    between atoms: _78  and  _80
REMARK   35  A    between atoms: _80  and  _81
REMARK   36  A    between atoms: _83  and  _85
REMARK   37  A    between atoms: _85  and  _86
REMARK   38  A    between atoms: _85  and  _88
REMARK   39  A    between atoms: _88  and  _89
REMARK   40  A    between atoms: _89  and  _90
REMARK   41  A    between atoms: _90  and  _91
REMARK   42  A    between atoms: _91  and  _92
REMARK   43  A    between atoms: _96  and  _98
REMARK   44  A    between atoms: _98  and  _99
REMARK   45  A    between atoms: _98  and  _101
REMARK   46  A    between atoms: _101  and  _102
REMARK   47  A    between atoms: _105  and  _107
REMARK   48  A    between atoms: _107  and  _108
REMARK   49  A    between atoms: _107  and  _110
REMARK   50  A    between atoms: _110  and  _111
REMARK   51  A    between atoms: _111  and  _112
REMARK   52  A    between atoms: _112  and  _113
REMARK   53  A    between atoms: _113  and  _114
REMARK   54  A    between atoms: _118  and  _120
REMARK   55  A    between atoms: _120  and  _121
REMARK   56  A    between atoms: _120  and  _123
REMARK   57  A    between atoms: _123  and  _124
REMARK   58  A    between atoms: _129  and  _131
REMARK   59  A    between atoms: _131  and  _132
REMARK   60  A    between atoms: _131  and  _134
REMARK   61  A    between atoms: _134  and  _135
REMARK   62  A    between atoms: _145  and  _147
REMARK   63  A    between atoms: _147  and  _148
REMARK   64  A    between atoms: _147  and  _150
REMARK   65  A    between atoms: _150  and  _151
REMARK   66  A    between atoms: _151  and  _152
REMARK   67  A    between atoms: _156  and  _157
REMARK   68  A    between atoms: _162  and  _164
REMARK   69  A    between atoms: _164  and  _165
REMARK   70  A    between atoms: _167  and  _169
REMARK   71  A    between atoms: _169  and  _170
REMARK   72  A    between atoms: _169  and  _172
REMARK   73  A    between atoms: _172  and  _173
REMARK   74  A    between atoms: _176  and  _178
REMARK   75  A    between atoms: _178  and  _179
REMARK   76  A    between atoms: _178  and  _181
REMARK   77  A    between atoms: _181  and  _182
REMARK   78  A    between atoms: _182  and  _183
REMARK   79  A    between atoms: _183  and  _184
REMARK   80  A    between atoms: _193  and  _195
REMARK   81  A    between atoms: _195  and  _196
REMARK   82  A    between atoms: _199  and  _201
REMARK   83  A    between atoms: _201  and  _202
REMARK   84  A    between atoms: _201  and  _204
REMARK   85  A    between atoms: _204  and  _205
REMARK   86  A    between atoms: _207  and  _209
REMARK   87  A    between atoms: _209  and  _210
REMARK   88  A    between atoms: _209  and  _212
REMARK   89  A    between atoms: _212  and  _213
REMARK   90  A    between atoms: _213  and  _214
REMARK   91  A    between atoms: _217  and  _219
REMARK   92  A    between atoms: _219  and  _220
REMARK   93  A    between atoms: _219  and  _222
REMARK   94  A    between atoms: _222  and  _223
REMARK   95  A    between atoms: _228  and  _230
REMARK   96  A    between atoms: _230  and  _231
REMARK   97  A    between atoms: _230  and  _233
REMARK   98  A    between atoms: _233  and  _234
REMARK   99  A    between atoms: _234  and  _235
REMARK  100  A    between atoms: _235  and  _236
REMARK  101  A    between atoms: _245  and  _247
REMARK  102  A    between atoms: _247  and  _248
REMARK  103  A    between atoms: _247  and  _250
REMARK  104  A    between atoms: _250  and  _251
REMARK  105  A    between atoms: _256  and  _258
REMARK  106  A    between atoms: _258  and  _259
REMARK  107  A    between atoms: _258  and  _261
REMARK  108  A    between atoms: _261  and  _262
REMARK                            x       y       z     vdW  Elec       q    Type
REMARK                         _______ _______ _______ _____ _____    ______ ____
ROOT
ATOM      1  O   HOH     1     -26.168 -26.116  -6.052  0.00  0.00    +0.000 OA
ENDROOT
TORSDOF 0
REMARK  Name = ../refined-set-2016/4j48/4j48_pocket.pdb
REMARK  108 active torsions:
REMARK  status: ('A' for Active; 'I' for Inactive)
REMARK    1  A    between atoms: _1  and  _3
REMARK    2  A    between atoms: _3  and  _4
REMARK    3  A    between atoms: _3  and  _6
REMARK    4  A    between atoms: _6  and  _7
REMARK    5  A    between atoms: _10  and  _12
REMARK    6  A    between atoms: _12  and  _13
REMARK    7  A    between atoms: _12  and  _15
REMARK    8  A    between atoms: _15  and  _16
REMARK    9  A    between atoms: _19  and  _21
REMARK   10  A    between atoms: _21  and  _22
REMARK   11  A    between atoms: _21  and  _24
REMARK   12  A    between atoms: _24  and  _25
REMARK   13  A    between atoms: _28  and  _30
REMARK   14  A    between atoms: _30  and  _31
REMARK   15  A    between atoms: _30  and  _33
REMARK   16  A    between atoms: _33  and  _34
REMARK   17  A    between atoms: _37  and  _39
REMARK   18  A    between atoms: _39  and  _40
REMARK   19  A    between atoms: _39  and  _42
REMARK   20  A    between atoms: _42  and  _43
REMARK   21  A    between atoms: _46  and  _48
REMARK   22  A    between atoms: _48  and  _49
REMARK   23  A    between atoms: _48  and  _51
REMARK   24  A    between atoms: _51  and  _52
REMARK   25  A    between atoms: _52  and  _53
REMARK   26  A    between atoms: _58  and  _60
REMARK   27  A    between atoms: _60  and  _61
REMARK   28  A    between atoms: _60  and  _63
REMARK   29  A    between atoms: _66  and  _68
REMARK   30  A    between atoms: _68  and  _69
REMARK   31  A    between atoms: _68  and  _71
REMARK   32  A    between atoms: _71  and  _72
REMARK   33  A    between atoms: _72  and  _73
REMARK   34  A    between atoms: _78  and  _80
REMARK   35  A    between atoms: _80  and  _81
REMARK   36  A    between atoms: _83  and  _85
REMARK   37  A    between atoms: _85  and  _86
REMARK   38  A    between atoms: _85  and  _88
REMARK   39  A    between atoms: _88  and  _89
REMARK   40  A    between atoms: _89  and  _90
REMARK   41  A    between atoms: _90  and  _91
REMARK   42  A    between atoms: _91  and  _92
REMARK   43  A    between atoms: _96  and  _98
REMARK   44  A    between atoms: _98  and  _99
REMARK   45  A    between atoms: _98  and  _101
REMARK   46  A    between atoms: _101  and  _102
REMARK   47  A    between atoms: _105  and  _107
REMARK   48  A    between atoms: _107  and  _108
REMARK   49  A    between atoms: _107  and  _110
REMARK   50  A    between atoms: _110  and  _111
REMARK   51  A    between atoms: _111  and  _112
REMARK   52  A    between atoms: _112  and  _113
REMARK   53  A    between atoms: _113  and  _114
REMARK   54  A    between atoms: _118  and  _120
REMARK   55  A    between atoms: _120  and  _121
REMARK   56  A    between atoms: _120  and  _123
REMARK   57  A    between atoms: _123  and  _124
REMARK   58  A    between atoms: _129  and  _131
REMARK   59  A    between atoms: _131  and  _132
REMARK   60  A    between atoms: _131  and  _134
REMARK   61  A    between atoms: _134  and  _135
REMARK   62  A    between atoms: _145  and  _147
REMARK   63  A    between atoms: _147  and  _148
REMARK   64  A    between atoms: _147  and  _150
REMARK   65  A    between atoms: _150  and  _151
REMARK   66  A    between atoms: _151  and  _152
REMARK   67  A    between atoms: _156  and  _157
REMARK   68  A    between atoms: _162  and  _164
REMARK   69  A    between atoms: _164  and  _165
REMARK   70  A    between atoms: _167  and  _169
REMARK   71  A    between atoms: _169  and  _170
REMARK   72  A    between atoms: _169  and  _172
REMARK   73  A    between atoms: _172  and  _173
REMARK   74  A    between atoms: _176  and  _178
REMARK   75  A    between atoms: _178  and  _179
REMARK   76  A    between atoms: _178  and  _181
REMARK   77  A    between atoms: _181  and  _182
REMARK   78  A    between atoms: _182  and  _183
REMARK   79  A    between atoms: _183  and  _184
REMARK   80  A    between atoms: _193  and  _195
REMARK   81  A    between atoms: _195  and  _196
REMARK   82  A    between atoms: _199  and  _201
REMARK   83  A    between atoms: _201  and  _202
REMARK   84  A    between atoms: _201  and  _204
REMARK   85  A    between atoms: _204  and  _205
REMARK   86  A    between atoms: _207  and  _209
REMARK   87  A    between atoms: _209  and  _210
REMARK   88  A    between atoms: _209  and  _212
REMARK   89  A    between atoms: _212  and  _213
REMARK   90  A    between atoms: _213  and  _214
REMARK   91  A    between atoms: _217  and  _219
REMARK   92  A    between atoms: _219  and  _220
REMARK   93  A    between atoms: _219  and  _222
REMARK   94  A    between atoms: _222  and  _223
REMARK   95  A    between atoms: _228  and  _230
REMARK   96  A    between atoms: _230  and  _231
REMARK   97  A    between atoms: _230  and  _233
REMARK   98  A    between atoms: _233  and  _234
REMARK   99  A    between atoms: _234  and  _235
REMARK  100  A    between atoms: _235  and  _236
REMARK  101  A    between atoms: _245  and  _247
REMARK  102  A    between atoms: _247  and  _248
REMARK  103  A    between atoms: _247  and  _250
REMARK  104  A    between atoms: _250  and  _251
REMARK  105  A    between atoms: _256  and  _258
REMARK  106  A    between atoms: _258  and  _259
REMARK  107  A    between atoms: _258  and  _261
REMARK  108  A    between atoms: _261  and  _262
REMARK                            x       y       z     vdW  Elec       q    Type
REMARK                         _______ _______ _______ _____ _____    ______ ____
ROOT
ATOM      1  O   HOH     1     -44.013 -20.744 -11.829  0.00  0.00    +0.000 OA
ENDROOT
TORSDOF 0
REMARK  Name = ../refined-set-2016/4j48/4j48_pocket.pdb
REMARK  108 active torsions:
REMARK  status: ('A' for Active; 'I' for Inactive)
REMARK    1  A    between atoms: _1  and  _3
REMARK    2  A    between atoms: _3  and  _4
REMARK    3  A    between atoms: _3  and  _6
REMARK    4  A    between atoms: _6  and  _7
REMARK    5  A    between atoms: _10  and  _12
REMARK    6  A    between atoms: _12  and  _13
REMARK    7  A    between atoms: _12  and  _15
REMARK    8  A    between atoms: _15  and  _16
REMARK    9  A    between atoms: _19  and  _21
REMARK   10  A    between atoms: _21  and  _22
REMARK   11  A    between atoms: _21  and  _24
REMARK   12  A    between atoms: _24  and  _25
REMARK   13  A    between atoms: _28  and  _30
REMARK   14  A    between atoms: _30  and  _31
REMARK   15  A    between atoms: _30  and  _33
REMARK   16  A    between atoms: _33  and  _34
REMARK   17  A    between atoms: _37  and  _39
REMARK   18  A    between atoms: _39  and  _40
REMARK   19  A    between atoms: _39  and  _42
REMARK   20  A    between atoms: _42  and  _43
REMARK   21  A    between atoms: _46  and  _48
REMARK   22  A    between atoms: _48  and  _49
REMARK   23  A    between atoms: _48  and  _51
REMARK   24  A    between atoms: _51  and  _52
REMARK   25  A    between atoms: _52  and  _53
REMARK   26  A    between atoms: _58  and  _60
REMARK   27  A    between atoms: _60  and  _61
REMARK   28  A    between atoms: _60  and  _63
REMARK   29  A    between atoms: _66  and  _68
REMARK   30  A    between atoms: _68  and  _69
REMARK   31  A    between atoms: _68  and  _71
REMARK   32  A    between atoms: _71  and  _72
REMARK   33  A    between atoms: _72  and  _73
REMARK   34  A    between atoms: _78  and  _80
REMARK   35  A    between atoms: _80  and  _81
REMARK   36  A    between atoms: _83  and  _85
REMARK   37  A    between atoms: _85  and  _86
REMARK   38  A    between atoms: _85  and  _88
REMARK   39  A    between atoms: _88  and  _89
REMARK   40  A    between atoms: _89  and  _90
REMARK   41  A    between atoms: _90  and  _91
REMARK   42  A    between atoms: _91  and  _92
REMARK   43  A    between atoms: _96  and  _98
REMARK   44  A    between atoms: _98  and  _99
REMARK   45  A    between atoms: _98  and  _101
REMARK   46  A    between atoms: _101  and  _102
REMARK   47  A    between atoms: _105  and  _107
REMARK   48  A    between atoms: _107  and  _108
REMARK   49  A    between atoms: _107  and  _110
REMARK   50  A    between atoms: _110  and  _111
REMARK   51  A    between atoms: _111  and  _112
REMARK   52  A    between atoms: _112  and  _113
REMARK   53  A    between atoms: _113  and  _114
REMARK   54  A    between atoms: _118  and  _120
REMARK   55  A    between atoms: _120  and  _121
REMARK   56  A    between atoms: _120  and  _123
REMARK   57  A    between atoms: _123  and  _124
REMARK   58  A    between atoms: _129  and  _131
REMARK   59  A    between atoms: _131  and  _132
REMARK   60  A    between atoms: _131  and  _134
REMARK   61  A    between atoms: _134  and  _135
REMARK   62  A    between atoms: _145  and  _147
REMARK   63  A    between atoms: _147  and  _148
REMARK   64  A    between atoms: _147  and  _150
REMARK   65  A    between atoms: _150  and  _151
REMARK   66  A    between atoms: _151  and  _152
REMARK   67  A    between atoms: _156  and  _157
REMARK   68  A    between atoms: _162  and  _164
REMARK   69  A    between atoms: _164  and  _165
REMARK   70  A    between atoms: _167  and  _169
REMARK   71  A    between atoms: _169  and  _170
REMARK   72  A    between atoms: _169  and  _172
REMARK   73  A    between atoms: _172  and  _173
REMARK   74  A    between atoms: _176  and  _178
REMARK   75  A    between atoms: _178  and  _179
REMARK   76  A    between atoms: _178  and  _181
REMARK   77  A    between atoms: _181  and  _182
REMARK   78  A    between atoms: _182  and  _183
REMARK   79  A    between atoms: _183  and  _184
REMARK   80  A    between atoms: _193  and  _195
REMARK   81  A    between atoms: _195  and  _196
REMARK   82  A    between atoms: _199  and  _201
REMARK   83  A    between atoms: _201  and  _202
REMARK   84  A    between atoms: _201  and  _204
REMARK   85  A    between atoms: _204  and  _205
REMARK   86  A    between atoms: _207  and  _209
REMARK   87  A    between atoms: _209  and  _210
REMARK   88  A    between atoms: _209  and  _212
REMARK   89  A    between atoms: _212  and  _213
REMARK   90  A    between atoms: _213  and  _214
REMARK   91  A    between atoms: _217  and  _219
REMARK   92  A    between atoms: _219  and  _220
REMARK   93  A    between atoms: _219  and  _222
REMARK   94  A    between atoms: _222  and  _223
REMARK   95  A    between atoms: _228  and  _230
REMARK   96  A    between atoms: _230  and  _231
REMARK   97  A    between atoms: _230  and  _233
REMARK   98  A    between atoms: _233  and  _234
REMARK   99  A    between atoms: _234  and  _235
REMARK  100  A    between atoms: _235  and  _236
REMARK  101  A    between atoms: _245  and  _247
REMARK  102  A    between atoms: _247  and  _248
REMARK  103  A    between atoms: _247  and  _250
REMARK  104  A    between atoms: _250  and  _251
REMARK  105  A    between atoms: _256  and  _258
REMARK  106  A    between atoms: _258  and  _259
REMARK  107  A    between atoms: _258  and  _261
REMARK  108  A    between atoms: _261  and  _262
REMARK                            x       y       z     vdW  Elec       q    Type
REMARK                         _______ _______ _______ _____ _____    ______ ____
ROOT
ATOM      1  O   HOH     1     -28.517 -26.887 -19.452  0.00  0.00    +0.000 OA
ENDROOT
TORSDOF 0
REMARK  Name = ../refined-set-2016/4j48/4j48_pocket.pdb
REMARK  108 active torsions:
REMARK  status: ('A' for Active; 'I' for Inactive)
REMARK    1  A    between atoms: _1  and  _3
REMARK    2  A    between atoms: _3  and  _4
REMARK    3  A    between atoms: _3  and  _6
REMARK    4  A    between atoms: _6  and  _7
REMARK    5  A    between atoms: _10  and  _12
REMARK    6  A    between atoms: _12  and  _13
REMARK    7  A    between atoms: _12  and  _15
REMARK    8  A    between atoms: _15  and  _16
REMARK    9  A    between atoms: _19  and  _21
REMARK   10  A    between atoms: _21  and  _22
REMARK   11  A    between atoms: _21  and  _24
REMARK   12  A    between atoms: _24  and  _25
REMARK   13  A    between atoms: _28  and  _30
REMARK   14  A    between atoms: _30  and  _31
REMARK   15  A    between atoms: _30  and  _33
REMARK   16  A    between atoms: _33  and  _34
REMARK   17  A    between atoms: _37  and  _39
REMARK   18  A    between atoms: _39  and  _40
REMARK   19  A    between atoms: _39  and  _42
REMARK   20  A    between atoms: _42  and  _43
REMARK   21  A    between atoms: _46  and  _48
REMARK   22  A    between atoms: _48  and  _49
REMARK   23  A    between atoms: _48  and  _51
REMARK   24  A    between atoms: _51  and  _52
REMARK   25  A    between atoms: _52  and  _53
REMARK   26  A    between atoms: _58  and  _60
REMARK   27  A    between atoms: _60  and  _61
REMARK   28  A    between atoms: _60  and  _63
REMARK   29  A    between atoms: _66  and  _68
REMARK   30  A    between atoms: _68  and  _69
REMARK   31  A    between atoms: _68  and  _71
REMARK   32  A    between atoms: _71  and  _72
REMARK   33  A    between atoms: _72  and  _73
REMARK   34  A    between atoms: _78  and  _80
REMARK   35  A    between atoms: _80  and  _81
REMARK   36  A    between atoms: _83  and  _85
REMARK   37  A    between atoms: _85  and  _86
REMARK   38  A    between atoms: _85  and  _88
REMARK   39  A    between atoms: _88  and  _89
REMARK   40  A    between atoms: _89  and  _90
REMARK   41  A    between atoms: _90  and  _91
REMARK   42  A    between atoms: _91  and  _92
REMARK   43  A    between atoms: _96  and  _98
REMARK   44  A    between atoms: _98  and  _99
REMARK   45  A    between atoms: _98  and  _101
REMARK   46  A    between atoms: _101  and  _102
REMARK   47  A    between atoms: _105  and  _107
REMARK   48  A    between atoms: _107  and  _108
REMARK   49  A    between atoms: _107  and  _110
REMARK   50  A    between atoms: _110  and  _111
REMARK   51  A    between atoms: _111  and  _112
REMARK   52  A    between atoms: _112  and  _113
REMARK   53  A    between atoms: _113  and  _114
REMARK   54  A    between atoms: _118  and  _120
REMARK   55  A    between atoms: _120  and  _121
REMARK   56  A    between atoms: _120  and  _123
REMARK   57  A    between atoms: _123  and  _124
REMARK   58  A    between atoms: _129  and  _131
REMARK   59  A    between atoms: _131  and  _132
REMARK   60  A    between atoms: _131  and  _134
REMARK   61  A    between atoms: _134  and  _135
REMARK   62  A    between atoms: _145  and  _147
REMARK   63  A    between atoms: _147  and  _148
REMARK   64  A    between atoms: _147  and  _150
REMARK   65  A    between atoms: _150  and  _151
REMARK   66  A    between atoms: _151  and  _152
REMARK   67  A    between atoms: _156  and  _157
REMARK   68  A    between atoms: _162  and  _164
REMARK   69  A    between atoms: _164  and  _165
REMARK   70  A    between atoms: _167  and  _169
REMARK   71  A    between atoms: _169  and  _170
REMARK   72  A    between atoms: _169  and  _172
REMARK   73  A    between atoms: _172  and  _173
REMARK   74  A    between atoms: _176  and  _178
REMARK   75  A    between atoms: _178  and  _179
REMARK   76  A    between atoms: _178  and  _181
REMARK   77  A    between atoms: _181  and  _182
REMARK   78  A    between atoms: _182  and  _183
REMARK   79  A    between atoms: _183  and  _184
REMARK   80  A    between atoms: _193  and  _195
REMARK   81  A    between atoms: _195  and  _196
REMARK   82  A    between atoms: _199  and  _201
REMARK   83  A    between atoms: _201  and  _202
REMARK   84  A    between atoms: _201  and  _204
REMARK   85  A    between atoms: _204  and  _205
REMARK   86  A    between atoms: _207  and  _209
REMARK   87  A    between atoms: _209  and  _210
REMARK   88  A    between atoms: _209  and  _212
REMARK   89  A    between atoms: _212  and  _213
REMARK   90  A    between atoms: _213  and  _214
REMARK   91  A    between atoms: _217  and  _219
REMARK   92  A    between atoms: _219  and  _220
REMARK   93  A    between atoms: _219  and  _222
REMARK   94  A    between atoms: _222  and  _223
REMARK   95  A    between atoms: _228  and  _230
REMARK   96  A    between atoms: _230  and  _231
REMARK   97  A    between atoms: _230  and  _233
REMARK   98  A    between atoms: _233  and  _234
REMARK   99  A    between atoms: _234  and  _235
REMARK  100  A    between atoms: _235  and  _236
REMARK  101  A    between atoms: _245  and  _247
REMARK  102  A    between atoms: _247  and  _248
REMARK  103  A    between atoms: _247  and  _250
REMARK  104  A    between atoms: _250  and  _251
REMARK  105  A    between atoms: _256  and  _258
REMARK  106  A    between atoms: _258  and  _259
REMARK  107  A    between atoms: _258  and  _261
REMARK  108  A    between atoms: _261  and  _262
REMARK                            x       y       z     vdW  Elec       q    Type
REMARK                         _______ _______ _______ _____ _____    ______ ____
ROOT
ATOM      1  O   HOH     1     -35.986 -28.874  -5.341  0.00  0.00    +0.000 OA
ENDROOT
TORSDOF 0
