REMARK  Name = ../refined-set-2016/2jg0/2jg0_pocket.pdb
REMARK  228 active torsions:
REMARK  status: ('A' for Active; 'I' for Inactive)
REMARK    1  A    between atoms: _1  and  _3
REMARK    2  A    between atoms: _3  and  _4
REMARK    3  A    between atoms: _3  and  _6
REMARK    4  A    between atoms: _6  and  _7
REMARK    5  A    between atoms: _10  and  _12
REMARK    6  A    between atoms: _12  and  _13
REMARK    7  A    between atoms: _12  and  _15
REMARK    8  A    between atoms: _15  and  _16
REMARK    9  A    between atoms: _16  and  _17
REMARK   10  A    between atoms: _22  and  _24
REMARK   11  A    between atoms: _24  and  _25
REMARK   12  A    between atoms: _24  and  _27
REMARK   13  A    between atoms: _27  and  _28
REMARK   14  A    between atoms: _28  and  _29
REMARK   15  A    between atoms: _29  and  _30
REMARK   16  A    between atoms: _30  and  _31
REMARK   17  A    between atoms: _35  and  _37
REMARK   18  A    between atoms: _37  and  _38
REMARK   19  A    between atoms: _37  and  _40
REMARK   20  A    between atoms: _44  and  _45
REMARK   21  A    between atoms: _50  and  _52
REMARK   22  A    between atoms: _52  and  _53
REMARK   23  A    between atoms: _55  and  _57
REMARK   24  A    between atoms: _57  and  _58
REMARK   25  A    between atoms: _57  and  _60
REMARK   26  A    between atoms: _60  and  _61
REMARK   27  A    between atoms: _61  and  _62
REMARK   28  A    between atoms: _62  and  _63
REMARK   29  A    between atoms: _72  and  _74
REMARK   30  A    between atoms: _74  and  _75
REMARK   31  A    between atoms: _74  and  _77
REMARK   32  A    between atoms: _77  and  _78
REMARK   33  A    between atoms: _84  and  _86
REMARK   34  A    between atoms: _86  and  _87
REMARK   35  A    between atoms: _86  and  _89
REMARK   36  A    between atoms: _89  and  _90
REMARK   37  A    between atoms: _90  and  _91
REMARK   38  A    between atoms: _91  and  _92
REMARK   39  A    between atoms: _101  and  _103
REMARK   40  A    between atoms: _103  and  _104
REMARK   41  A    between atoms: _103  and  _106
REMARK   42  A    between atoms: _106  and  _107
REMARK   43  A    between atoms: _107  and  _108
REMARK   44  A    between atoms: _111  and  _113
REMARK   45  A    between atoms: _113  and  _114
REMARK   46  A    between atoms: _113  and  _116
REMARK   47  A    between atoms: _119  and  _121
REMARK   48  A    between atoms: _121  and  _122
REMARK   49  A    between atoms: _121  and  _124
REMARK   50  A    between atoms: _124  and  _125
REMARK   51  A    between atoms: _130  and  _131
REMARK   52  A    between atoms: _133  and  _135
REMARK   53  A    between atoms: _135  and  _136
REMARK   54  A    between atoms: _135  and  _138
REMARK   55  A    between atoms: _138  and  _139
REMARK   56  A    between atoms: _144  and  _145
REMARK   57  A    between atoms: _147  and  _149
REMARK   58  A    between atoms: _149  and  _150
REMARK   59  A    between atoms: _149  and  _152
REMARK   60  A    between atoms: _152  and  _153
REMARK   61  A    between atoms: _163  and  _165
REMARK   62  A    between atoms: _165  and  _166
REMARK   63  A    between atoms: _165  and  _168
REMARK   64  A    between atoms: _168  and  _169
REMARK   65  A    between atoms: _172  and  _174
REMARK   66  A    between atoms: _174  and  _175
REMARK   67  A    between atoms: _174  and  _177
REMARK   68  A    between atoms: _177  and  _178
REMARK   69  A    between atoms: _180  and  _182
REMARK   70  A    between atoms: _182  and  _183
REMARK   71  A    between atoms: _182  and  _185
REMARK   72  A    between atoms: _185  and  _186
REMARK   73  A    between atoms: _191  and  _193
REMARK   74  A    between atoms: _193  and  _194
REMARK   75  A    between atoms: _196  and  _198
REMARK   76  A    between atoms: _198  and  _199
REMARK   77  A    between atoms: _198  and  _201
REMARK   78  A    between atoms: _201  and  _202
REMARK   79  A    between atoms: _207  and  _208
REMARK   80  A    between atoms: _210  and  _212
REMARK   81  A    between atoms: _212  and  _213
REMARK   82  A    between atoms: _212  and  _215
REMARK   83  A    between atoms: _215  and  _216
REMARK   84  A    between atoms: _221  and  _222
REMARK   85  A    between atoms: _224  and  _226
REMARK   86  A    between atoms: _226  and  _227
REMARK   87  A    between atoms: _226  and  _229
REMARK   88  A    between atoms: _229  and  _230
REMARK   89  A    between atoms: _232  and  _234
REMARK   90  A    between atoms: _234  and  _235
REMARK   91  A    between atoms: _234  and  _237
REMARK   92  A    between atoms: _237  and  _238
REMARK   93  A    between atoms: _238  and  _239
REMARK   94  A    between atoms: _239  and  _240
REMARK   95  A    between atoms: _249  and  _251
REMARK   96  A    between atoms: _251  and  _252
REMARK   97  A    between atoms: _251  and  _254
REMARK   98  A    between atoms: _254  and  _255
REMARK   99  A    between atoms: _257  and  _259
REMARK  100  A    between atoms: _259  and  _260
REMARK  101  A    between atoms: _259  and  _262
REMARK  102  A    between atoms: _262  and  _263
REMARK  103  A    between atoms: _263  and  _264
REMARK  104  A    between atoms: _270  and  _271
REMARK  105  A    between atoms: _276  and  _278
REMARK  106  A    between atoms: _278  and  _279
REMARK  107  A    between atoms: _278  and  _281
REMARK  108  A    between atoms: _281  and  _282
REMARK  109  A    between atoms: _285  and  _287
REMARK  110  A    between atoms: _287  and  _288
REMARK  111  A    between atoms: _287  and  _290
REMARK  112  A    between atoms: _290  and  _291
REMARK  113  A    between atoms: _291  and  _292
REMARK  114  A    between atoms: _292  and  _293
REMARK  115  A    between atoms: _303  and  _304
REMARK  116  A    between atoms: _309  and  _311
REMARK  117  A    between atoms: _311  and  _312
REMARK  118  A    between atoms: _311  and  _314
REMARK  119  A    between atoms: _314  and  _315
REMARK  120  A    between atoms: _315  and  _316
REMARK  121  A    between atoms: _319  and  _321
REMARK  122  A    between atoms: _321  and  _322
REMARK  123  A    between atoms: _321  and  _324
REMARK  124  A    between atoms: _324  and  _325
REMARK  125  A    between atoms: _327  and  _329
REMARK  126  A    between atoms: _329  and  _330
REMARK  127  A    between atoms: _329  and  _332
REMARK  128  A    between atoms: _332  and  _333
REMARK  129  A    between atoms: _343  and  _345
REMARK  130  A    between atoms: _345  and  _346
REMARK  131  A    between atoms: _345  and  _348
REMARK  132  A    between atoms: _348  and  _349
REMARK  133  A    between atoms: _349  and  _350
REMARK  134  A    between atoms: _353  and  _355
REMARK  135  A    between atoms: _355  and  _356
REMARK  136  A    between atoms: _355  and  _358
REMARK  137  A    between atoms: _358  and  _359
REMARK  138  A    between atoms: _362  and  _364
REMARK  139  A    between atoms: _364  and  _365
REMARK  140  A    between atoms: _364  and  _367
REMARK  141  A    between atoms: _367  and  _368
REMARK  142  A    between atoms: _371  and  _373
REMARK  143  A    between atoms: _373  and  _374
REMARK  144  A    between atoms: _373  and  _376
REMARK  145  A    between atoms: _376  and  _377
REMARK  146  A    between atoms: _377  and  _378
REMARK  147  A    between atoms: _378  and  _379
REMARK  148  A    between atoms: _388  and  _390
REMARK  149  A    between atoms: _390  and  _391
REMARK  150  A    between atoms: _394  and  _396
REMARK  151  A    between atoms: _396  and  _397
REMARK  152  A    between atoms: _400  and  _402
REMARK  153  A    between atoms: _402  and  _403
REMARK  154  A    between atoms: _406  and  _408
REMARK  155  A    between atoms: _408  and  _409
REMARK  156  A    between atoms: _408  and  _411
REMARK  157  A    between atoms: _411  and  _412
REMARK  158  A    between atoms: _414  and  _416
REMARK  159  A    between atoms: _416  and  _417
REMARK  160  A    between atoms: _419  and  _421
REMARK  161  A    between atoms: _421  and  _422
REMARK  162  A    between atoms: _421  and  _424
REMARK  163  A    between atoms: _424  and  _425
REMARK  164  A    between atoms: _435  and  _437
REMARK  165  A    between atoms: _437  and  _438
REMARK  166  A    between atoms: _437  and  _440
REMARK  167  A    between atoms: _440  and  _441
REMARK  168  A    between atoms: _444  and  _446
REMARK  169  A    between atoms: _446  and  _447
REMARK  170  A    between atoms: _446  and  _449
REMARK  171  A    between atoms: _449  and  _450
REMARK  172  A    between atoms: _456  and  _458
REMARK  173  A    between atoms: _458  and  _459
REMARK  174  A    between atoms: _458  and  _461
REMARK  175  A    between atoms: _461  and  _462
REMARK  176  A    between atoms: _462  and  _463
REMARK  177  A    between atoms: _468  and  _470
REMARK  178  A    between atoms: _470  and  _471
REMARK  179  A    between atoms: _470  and  _473
REMARK  180  A    between atoms: _473  and  _474
REMARK  181  A    between atoms: _484  and  _486
REMARK  182  A    between atoms: _486  and  _487
REMARK  183  A    between atoms: _486  and  _489
REMARK  184  A    between atoms: _489  and  _490
REMARK  185  A    between atoms: _501  and  _502
REMARK  186  A    between atoms: _507  and  _509
REMARK  187  A    between atoms: _509  and  _510
REMARK  188  A    between atoms: _509  and  _512
REMARK  189  A    between atoms: _512  and  _513
REMARK  190  A    between atoms: _513  and  _514
REMARK  191  A    between atoms: _517  and  _519
REMARK  192  A    between atoms: _519  and  _520
REMARK  193  A    between atoms: _519  and  _522
REMARK  194  A    between atoms: _522  and  _523
REMARK  195  A    between atoms: _523  and  _524
REMARK  196  A    between atoms: _524  and  _525
REMARK  197  A    between atoms: _525  and  _526
REMARK  198  A    between atoms: _530  and  _532
REMARK  199  A    between atoms: _532  and  _533
REMARK  200  A    between atoms: _535  and  _537
REMARK  201  A    between atoms: _537  and  _538
REMARK  202  A    between atoms: _537  and  _540
REMARK  203  A    between atoms: _540  and  _541
REMARK  204  A    between atoms: _541  and  _542
REMARK  205  A    between atoms: _545  and  _547
REMARK  206  A    between atoms: _547  and  _548
REMARK  207  A    between atoms: _547  and  _550
REMARK  208  A    between atoms: _550  and  _551
REMARK  209  A    between atoms: _556  and  _557
REMARK  210  A    between atoms: _559  and  _561
REMARK  211  A    between atoms: _561  and  _562
REMARK  212  A    between atoms: _561  and  _564
REMARK  213  A    between atoms: _564  and  _565
REMARK  214  A    between atoms: _565  and  _566
REMARK  215  A    between atoms: _571  and  _573
REMARK  216  A    between atoms: _573  and  _574
REMARK  217  A    between atoms: _573  and  _576
REMARK  218  A    between atoms: _576  and  _577
REMARK  219  A    between atoms: _583  and  _585
REMARK  220  A    between atoms: _585  and  _586
REMARK  221  A    between atoms: _588  and  _590
REMARK  222  A    between atoms: _590  and  _591
REMARK  223  A    between atoms: _590  and  _593
REMARK  224  A    between atoms: _593  and  _594
REMARK  225  A    between atoms: _604  and  _606
REMARK  226  A    between atoms: _606  and  _607
REMARK  227  A    between atoms: _606  and  _609
REMARK  228  A    between atoms: _609  and  _610
REMARK                            x       y       z     vdW  Elec       q    Type
REMARK                         _______ _______ _______ _____ _____    ______ ____
ROOT
ATOM      1  CA  GLN A   2      19.734  58.396   1.108  0.00  0.00    +0.149 C 
ENDROOT
BRANCH   1   4
ATOM      2  C   ASP A   1      21.602  59.523   2.196  0.00  0.00    +0.239 C 
ATOM      3  O   ASP A   1      20.986  60.598   2.223  0.00  0.00    -0.274 OA
ATOM      4  N   GLN A   2      21.097  58.423   1.646  0.00  0.00    -0.297 N 
ATOM      5  H   GLN A   2      21.681  57.564   1.597  0.00  0.00    +0.150 HD
BRANCH   2   6
ATOM      6  CA  ASP A   1      22.988  59.429   2.807  0.00  0.00    +0.156 C 
BRANCH   6   7
ATOM      7  N   ASP A   1      23.785  60.478   2.191  0.00  0.00    -0.238 NA
ATOM      8  H   ASP A   1      23.517  61.469   2.358  0.00  0.00    +0.142 HD
ENDBRANCH   6   7
BRANCH   6   9
ATOM      9  CB  ASP A   1      22.945  59.676   4.304  0.00  0.00    +0.140 C 
BRANCH   9  10
ATOM     10  CG  ASP A   1      22.312  58.535   5.089  0.00  0.00    +0.367 C 
ATOM     11  OD2 ASP A   1      22.490  58.540   6.348  0.00  0.00    -0.246 OA
ATOM     12  OD1 ASP A   1      21.677  57.639   4.508  0.00  0.00    -0.246 OA
ENDBRANCH   9  10
ENDBRANCH   6   9
ENDBRANCH   2   6
ENDBRANCH   1   4
BRANCH   1  13
ATOM     13  C   GLN A   2      18.702  58.614   2.213  0.00  0.00    +0.241 C 
ATOM     14  N   LYS A   3      19.059  58.379   3.470  0.00  0.00    -0.298 N 
ATOM     15  H   LYS A   3      20.015  58.038   3.697  0.00  0.00    +0.150 HD
ATOM     16  O   GLN A   2      17.618  59.032   1.943  0.00  0.00    -0.273 OA
BRANCH  14  17
ATOM     17  CA  LYS A   3      18.081  58.609   4.524  0.00  0.00    +0.137 C 
BRANCH  17  18
ATOM     18  C   LYS A   3      17.791  60.094   4.706  0.00  0.00    +0.227 C 
ATOM     19  O   LYS A   3      16.743  60.458   5.237  0.00  0.00    -0.286 OA
ENDBRANCH  17  18
BRANCH  17  20
ATOM     20  CB  LYS A   3      18.531  57.974   5.847  0.00  0.00    +0.028 C 
BRANCH  20  21
ATOM     21  CG  LYS A   3      17.457  57.909   6.916  0.00  0.00    -0.000 C 
BRANCH  21  22
ATOM     22  CD  LYS A   3      17.897  57.082   8.086  0.00  0.00    -0.024 C 
BRANCH  22  23
ATOM     23  CE  LYS A   3      16.817  57.017   9.157  0.00  0.00    -0.086 C 
BRANCH  23  24
ATOM     24  NZ  LYS A   3      16.645  58.327   9.866  0.00  0.00    +0.380 N 
ATOM     25  HZ1 LYS A   3      15.900  58.235  10.586  0.00  0.00    -0.089 HD
ATOM     26  HZ2 LYS A   3      17.540  58.592  10.324  0.00  0.00    -0.089 HD
ATOM     27  HZ3 LYS A   3      16.376  59.059   9.178  0.00  0.00    -0.089 HD
ENDBRANCH  23  24
ENDBRANCH  22  23
ENDBRANCH  21  22
ENDBRANCH  20  21
ENDBRANCH  17  20
ENDBRANCH  14  17
ENDBRANCH   1  13
BRANCH   1  28
ATOM     28  CB  GLN A   2      19.484  57.098   0.371  0.00  0.00    +0.039 C 
BRANCH  28  29
ATOM     29  CG  GLN A   2      20.358  56.939  -0.898  0.00  0.00    +0.087 C 
BRANCH  29  30
ATOM     30  CD  GLN A   2      19.729  57.615  -2.072  0.00  0.00    +0.219 C 
ATOM     31  OE1 GLN A   2      18.691  57.157  -2.539  0.00  0.00    -0.275 OA
ATOM     32  NE2 GLN A   2      20.354  58.698  -2.582  0.00  0.00    -0.329 N 
ATOM     33 HE21 GLN A   2      21.233  59.045  -2.146  0.00  0.00    +0.145 HD
ATOM     34 HE22 GLN A   2      19.957  59.186  -3.410  0.00  0.00    +0.145 HD
ENDBRANCH  29  30
ENDBRANCH  28  29
ENDBRANCH   1  28
TORSDOF 16
REMARK  Name = ../refined-set-2016/2jg0/2jg0_pocket.pdb
REMARK  228 active torsions:
REMARK  status: ('A' for Active; 'I' for Inactive)
REMARK    1  A    between atoms: _1  and  _3
REMARK    2  A    between atoms: _3  and  _4
REMARK    3  A    between atoms: _3  and  _6
REMARK    4  A    between atoms: _6  and  _7
REMARK    5  A    between atoms: _10  and  _12
REMARK    6  A    between atoms: _12  and  _13
REMARK    7  A    between atoms: _12  and  _15
REMARK    8  A    between atoms: _15  and  _16
REMARK    9  A    between atoms: _16  and  _17
REMARK   10  A    between atoms: _22  and  _24
REMARK   11  A    between atoms: _24  and  _25
REMARK   12  A    between atoms: _24  and  _27
REMARK   13  A    between atoms: _27  and  _28
REMARK   14  A    between atoms: _28  and  _29
REMARK   15  A    between atoms: _29  and  _30
REMARK   16  A    between atoms: _30  and  _31
REMARK   17  A    between atoms: _35  and  _37
REMARK   18  A    between atoms: _37  and  _38
REMARK   19  A    between atoms: _37  and  _40
REMARK   20  A    between atoms: _44  and  _45
REMARK   21  A    between atoms: _50  and  _52
REMARK   22  A    between atoms: _52  and  _53
REMARK   23  A    between atoms: _55  and  _57
REMARK   24  A    between atoms: _57  and  _58
REMARK   25  A    between atoms: _57  and  _60
REMARK   26  A    between atoms: _60  and  _61
REMARK   27  A    between atoms: _61  and  _62
REMARK   28  A    between atoms: _62  and  _63
REMARK   29  A    between atoms: _72  and  _74
REMARK   30  A    between atoms: _74  and  _75
REMARK   31  A    between atoms: _74  and  _77
REMARK   32  A    between atoms: _77  and  _78
REMARK   33  A    between atoms: _84  and  _86
REMARK   34  A    between atoms: _86  and  _87
REMARK   35  A    between atoms: _86  and  _89
REMARK   36  A    between atoms: _89  and  _90
REMARK   37  A    between atoms: _90  and  _91
REMARK   38  A    between atoms: _91  and  _92
REMARK   39  A    between atoms: _101  and  _103
REMARK   40  A    between atoms: _103  and  _104
REMARK   41  A    between atoms: _103  and  _106
REMARK   42  A    between atoms: _106  and  _107
REMARK   43  A    between atoms: _107  and  _108
REMARK   44  A    between atoms: _111  and  _113
REMARK   45  A    between atoms: _113  and  _114
REMARK   46  A    between atoms: _113  and  _116
REMARK   47  A    between atoms: _119  and  _121
REMARK   48  A    between atoms: _121  and  _122
REMARK   49  A    between atoms: _121  and  _124
REMARK   50  A    between atoms: _124  and  _125
REMARK   51  A    between atoms: _130  and  _131
REMARK   52  A    between atoms: _133  and  _135
REMARK   53  A    between atoms: _135  and  _136
REMARK   54  A    between atoms: _135  and  _138
REMARK   55  A    between atoms: _138  and  _139
REMARK   56  A    between atoms: _144  and  _145
REMARK   57  A    between atoms: _147  and  _149
REMARK   58  A    between atoms: _149  and  _150
REMARK   59  A    between atoms: _149  and  _152
REMARK   60  A    between atoms: _152  and  _153
REMARK   61  A    between atoms: _163  and  _165
REMARK   62  A    between atoms: _165  and  _166
REMARK   63  A    between atoms: _165  and  _168
REMARK   64  A    between atoms: _168  and  _169
REMARK   65  A    between atoms: _172  and  _174
REMARK   66  A    between atoms: _174  and  _175
REMARK   67  A    between atoms: _174  and  _177
REMARK   68  A    between atoms: _177  and  _178
REMARK   69  A    between atoms: _180  and  _182
REMARK   70  A    between atoms: _182  and  _183
REMARK   71  A    between atoms: _182  and  _185
REMARK   72  A    between atoms: _185  and  _186
REMARK   73  A    between atoms: _191  and  _193
REMARK   74  A    between atoms: _193  and  _194
REMARK   75  A    between atoms: _196  and  _198
REMARK   76  A    between atoms: _198  and  _199
REMARK   77  A    between atoms: _198  and  _201
REMARK   78  A    between atoms: _201  and  _202
REMARK   79  A    between atoms: _207  and  _208
REMARK   80  A    between atoms: _210  and  _212
REMARK   81  A    between atoms: _212  and  _213
REMARK   82  A    between atoms: _212  and  _215
REMARK   83  A    between atoms: _215  and  _216
REMARK   84  A    between atoms: _221  and  _222
REMARK   85  A    between atoms: _224  and  _226
REMARK   86  A    between atoms: _226  and  _227
REMARK   87  A    between atoms: _226  and  _229
REMARK   88  A    between atoms: _229  and  _230
REMARK   89  A    between atoms: _232  and  _234
REMARK   90  A    between atoms: _234  and  _235
REMARK   91  A    between atoms: _234  and  _237
REMARK   92  A    between atoms: _237  and  _238
REMARK   93  A    between atoms: _238  and  _239
REMARK   94  A    between atoms: _239  and  _240
REMARK   95  A    between atoms: _249  and  _251
REMARK   96  A    between atoms: _251  and  _252
REMARK   97  A    between atoms: _251  and  _254
REMARK   98  A    between atoms: _254  and  _255
REMARK   99  A    between atoms: _257  and  _259
REMARK  100  A    between atoms: _259  and  _260
REMARK  101  A    between atoms: _259  and  _262
REMARK  102  A    between atoms: _262  and  _263
REMARK  103  A    between atoms: _263  and  _264
REMARK  104  A    between atoms: _270  and  _271
REMARK  105  A    between atoms: _276  and  _278
REMARK  106  A    between atoms: _278  and  _279
REMARK  107  A    between atoms: _278  and  _281
REMARK  108  A    between atoms: _281  and  _282
REMARK  109  A    between atoms: _285  and  _287
REMARK  110  A    between atoms: _287  and  _288
REMARK  111  A    between atoms: _287  and  _290
REMARK  112  A    between atoms: _290  and  _291
REMARK  113  A    between atoms: _291  and  _292
REMARK  114  A    between atoms: _292  and  _293
REMARK  115  A    between atoms: _303  and  _304
REMARK  116  A    between atoms: _309  and  _311
REMARK  117  A    between atoms: _311  and  _312
REMARK  118  A    between atoms: _311  and  _314
REMARK  119  A    between atoms: _314  and  _315
REMARK  120  A    between atoms: _315  and  _316
REMARK  121  A    between atoms: _319  and  _321
REMARK  122  A    between atoms: _321  and  _322
REMARK  123  A    between atoms: _321  and  _324
REMARK  124  A    between atoms: _324  and  _325
REMARK  125  A    between atoms: _327  and  _329
REMARK  126  A    between atoms: _329  and  _330
REMARK  127  A    between atoms: _329  and  _332
REMARK  128  A    between atoms: _332  and  _333
REMARK  129  A    between atoms: _343  and  _345
REMARK  130  A    between atoms: _345  and  _346
REMARK  131  A    between atoms: _345  and  _348
REMARK  132  A    between atoms: _348  and  _349
REMARK  133  A    between atoms: _349  and  _350
REMARK  134  A    between atoms: _353  and  _355
REMARK  135  A    between atoms: _355  and  _356
REMARK  136  A    between atoms: _355  and  _358
REMARK  137  A    between atoms: _358  and  _359
REMARK  138  A    between atoms: _362  and  _364
REMARK  139  A    between atoms: _364  and  _365
REMARK  140  A    between atoms: _364  and  _367
REMARK  141  A    between atoms: _367  and  _368
REMARK  142  A    between atoms: _371  and  _373
REMARK  143  A    between atoms: _373  and  _374
REMARK  144  A    between atoms: _373  and  _376
REMARK  145  A    between atoms: _376  and  _377
REMARK  146  A    between atoms: _377  and  _378
REMARK  147  A    between atoms: _378  and  _379
REMARK  148  A    between atoms: _388  and  _390
REMARK  149  A    between atoms: _390  and  _391
REMARK  150  A    between atoms: _394  and  _396
REMARK  151  A    between atoms: _396  and  _397
REMARK  152  A    between atoms: _400  and  _402
REMARK  153  A    between atoms: _402  and  _403
REMARK  154  A    between atoms: _406  and  _408
REMARK  155  A    between atoms: _408  and  _409
REMARK  156  A    between atoms: _408  and  _411
REMARK  157  A    between atoms: _411  and  _412
REMARK  158  A    between atoms: _414  and  _416
REMARK  159  A    between atoms: _416  and  _417
REMARK  160  A    between atoms: _419  and  _421
REMARK  161  A    between atoms: _421  and  _422
REMARK  162  A    between atoms: _421  and  _424
REMARK  163  A    between atoms: _424  and  _425
REMARK  164  A    between atoms: _435  and  _437
REMARK  165  A    between atoms: _437  and  _438
REMARK  166  A    between atoms: _437  and  _440
REMARK  167  A    between atoms: _440  and  _441
REMARK  168  A    between atoms: _444  and  _446
REMARK  169  A    between atoms: _446  and  _447
REMARK  170  A    between atoms: _446  and  _449
REMARK  171  A    between atoms: _449  and  _450
REMARK  172  A    between atoms: _456  and  _458
REMARK  173  A    between atoms: _458  and  _459
REMARK  174  A    between atoms: _458  and  _461
REMARK  175  A    between atoms: _461  and  _462
REMARK  176  A    between atoms: _462  and  _463
REMARK  177  A    between atoms: _468  and  _470
REMARK  178  A    between atoms: _470  and  _471
REMARK  179  A    between atoms: _470  and  _473
REMARK  180  A    between atoms: _473  and  _474
REMARK  181  A    between atoms: _484  and  _486
REMARK  182  A    between atoms: _486  and  _487
REMARK  183  A    between atoms: _486  and  _489
REMARK  184  A    between atoms: _489  and  _490
REMARK  185  A    between atoms: _501  and  _502
REMARK  186  A    between atoms: _507  and  _509
REMARK  187  A    between atoms: _509  and  _510
REMARK  188  A    between atoms: _509  and  _512
REMARK  189  A    between atoms: _512  and  _513
REMARK  190  A    between atoms: _513  and  _514
REMARK  191  A    between atoms: _517  and  _519
REMARK  192  A    between atoms: _519  and  _520
REMARK  193  A    between atoms: _519  and  _522
REMARK  194  A    between atoms: _522  and  _523
REMARK  195  A    between atoms: _523  and  _524
REMARK  196  A    between atoms: _524  and  _525
REMARK  197  A    between atoms: _525  and  _526
REMARK  198  A    between atoms: _530  and  _532
REMARK  199  A    between atoms: _532  and  _533
REMARK  200  A    between atoms: _535  and  _537
REMARK  201  A    between atoms: _537  and  _538
REMARK  202  A    between atoms: _537  and  _540
REMARK  203  A    between atoms: _540  and  _541
REMARK  204  A    between atoms: _541  and  _542
REMARK  205  A    between atoms: _545  and  _547
REMARK  206  A    between atoms: _547  and  _548
REMARK  207  A    between atoms: _547  and  _550
REMARK  208  A    between atoms: _550  and  _551
REMARK  209  A    between atoms: _556  and  _557
REMARK  210  A    between atoms: _559  and  _561
REMARK  211  A    between atoms: _561  and  _562
REMARK  212  A    between atoms: _561  and  _564
REMARK  213  A    between atoms: _564  and  _565
REMARK  214  A    between atoms: _565  and  _566
REMARK  215  A    between atoms: _571  and  _573
REMARK  216  A    between atoms: _573  and  _574
REMARK  217  A    between atoms: _573  and  _576
REMARK  218  A    between atoms: _576  and  _577
REMARK  219  A    between atoms: _583  and  _585
REMARK  220  A    between atoms: _585  and  _586
REMARK  221  A    between atoms: _588  and  _590
REMARK  222  A    between atoms: _590  and  _591
REMARK  223  A    between atoms: _590  and  _593
REMARK  224  A    between atoms: _593  and  _594
REMARK  225  A    between atoms: _604  and  _606
REMARK  226  A    between atoms: _606  and  _607
REMARK  227  A    between atoms: _606  and  _609
REMARK  228  A    between atoms: _609  and  _610
REMARK                            x       y       z     vdW  Elec       q    Type
REMARK                         _______ _______ _______ _____ _____    ______ ____
ROOT
ATOM      1  C   VAL A   1      18.187  56.255  19.708  0.00  0.00    +0.241 C 
ATOM      2  O   VAL A   1      18.945  56.508  20.655  0.00  0.00    -0.273 OA
ATOM      3  N   PRO A   2      18.562  55.445  18.701  0.00  0.00    -0.272 N 
ATOM      4  CA  PRO A   2      19.908  54.824  18.767  0.00  0.00    +0.152 C 
ATOM      5  CB  PRO A   2      19.921  53.911  17.548  0.00  0.00    +0.031 C 
ATOM      6  CG  PRO A   2      18.488  53.591  17.295  0.00  0.00    +0.024 C 
ATOM      7  CD  PRO A   2      17.795  54.922  17.562  0.00  0.00    +0.094 C 
ENDROOT
BRANCH   4   8
ATOM      8  C   PRO A   2      21.055  55.799  18.711  0.00  0.00    +0.241 C 
ATOM      9  O   PRO A   2      22.037  55.600  19.405  0.00  0.00    -0.273 OA
ATOM     10  N   GLY A   3      20.952  56.845  17.888  0.00  0.00    -0.296 N 
ATOM     11  H   GLY A   3      20.059  57.007  17.380  0.00  0.00    +0.150 HD
BRANCH  10  12
ATOM     12  CA  GLY A   3      22.074  57.773  17.685  0.00  0.00    +0.163 C 
BRANCH  12  13
ATOM     13  C   GLY A   3      22.365  58.002  16.214  0.00  0.00    +0.229 C 
ATOM     14  O   GLY A   3      21.986  57.203  15.345  0.00  0.00    -0.286 OA
ENDBRANCH  12  13
ENDBRANCH  10  12
ENDBRANCH   4   8
BRANCH   1  15
ATOM     15  CA  VAL A   1      16.774  56.835  19.676  0.00  0.00    +0.145 C 
BRANCH  15  16
ATOM     16  CB  VAL A   1      16.730  58.038  18.696  0.00  0.00    +0.025 C 
ATOM     17  CG2 VAL A   1      17.858  59.093  19.013  0.00  0.00    +0.002 C 
ATOM     18  CG1 VAL A   1      15.347  58.714  18.723  0.00  0.00    +0.002 C 
ENDBRANCH  15  16
BRANCH  15  19
ATOM     19  N   VAL A   1      16.430  57.247  21.025  0.00  0.00    -0.238 NA
ATOM     20  H   VAL A   1      16.850  58.125  21.392  0.00  0.00    +0.142 HD
ENDBRANCH  15  19
ENDBRANCH   1  15
TORSDOF 6
REMARK  Name = ../refined-set-2016/2jg0/2jg0_pocket.pdb
REMARK  228 active torsions:
REMARK  status: ('A' for Active; 'I' for Inactive)
REMARK    1  A    between atoms: _1  and  _3
REMARK    2  A    between atoms: _3  and  _4
REMARK    3  A    between atoms: _3  and  _6
REMARK    4  A    between atoms: _6  and  _7
REMARK    5  A    between atoms: _10  and  _12
REMARK    6  A    between atoms: _12  and  _13
REMARK    7  A    between atoms: _12  and  _15
REMARK    8  A    between atoms: _15  and  _16
REMARK    9  A    between atoms: _16  and  _17
REMARK   10  A    between atoms: _22  and  _24
REMARK   11  A    between atoms: _24  and  _25
REMARK   12  A    between atoms: _24  and  _27
REMARK   13  A    between atoms: _27  and  _28
REMARK   14  A    between atoms: _28  and  _29
REMARK   15  A    between atoms: _29  and  _30
REMARK   16  A    between atoms: _30  and  _31
REMARK   17  A    between atoms: _35  and  _37
REMARK   18  A    between atoms: _37  and  _38
REMARK   19  A    between atoms: _37  and  _40
REMARK   20  A    between atoms: _44  and  _45
REMARK   21  A    between atoms: _50  and  _52
REMARK   22  A    between atoms: _52  and  _53
REMARK   23  A    between atoms: _55  and  _57
REMARK   24  A    between atoms: _57  and  _58
REMARK   25  A    between atoms: _57  and  _60
REMARK   26  A    between atoms: _60  and  _61
REMARK   27  A    between atoms: _61  and  _62
REMARK   28  A    between atoms: _62  and  _63
REMARK   29  A    between atoms: _72  and  _74
REMARK   30  A    between atoms: _74  and  _75
REMARK   31  A    between atoms: _74  and  _77
REMARK   32  A    between atoms: _77  and  _78
REMARK   33  A    between atoms: _84  and  _86
REMARK   34  A    between atoms: _86  and  _87
REMARK   35  A    between atoms: _86  and  _89
REMARK   36  A    between atoms: _89  and  _90
REMARK   37  A    between atoms: _90  and  _91
REMARK   38  A    between atoms: _91  and  _92
REMARK   39  A    between atoms: _101  and  _103
REMARK   40  A    between atoms: _103  and  _104
REMARK   41  A    between atoms: _103  and  _106
REMARK   42  A    between atoms: _106  and  _107
REMARK   43  A    between atoms: _107  and  _108
REMARK   44  A    between atoms: _111  and  _113
REMARK   45  A    between atoms: _113  and  _114
REMARK   46  A    between atoms: _113  and  _116
REMARK   47  A    between atoms: _119  and  _121
REMARK   48  A    between atoms: _121  and  _122
REMARK   49  A    between atoms: _121  and  _124
REMARK   50  A    between atoms: _124  and  _125
REMARK   51  A    between atoms: _130  and  _131
REMARK   52  A    between atoms: _133  and  _135
REMARK   53  A    between atoms: _135  and  _136
REMARK   54  A    between atoms: _135  and  _138
REMARK   55  A    between atoms: _138  and  _139
REMARK   56  A    between atoms: _144  and  _145
REMARK   57  A    between atoms: _147  and  _149
REMARK   58  A    between atoms: _149  and  _150
REMARK   59  A    between atoms: _149  and  _152
REMARK   60  A    between atoms: _152  and  _153
REMARK   61  A    between atoms: _163  and  _165
REMARK   62  A    between atoms: _165  and  _166
REMARK   63  A    between atoms: _165  and  _168
REMARK   64  A    between atoms: _168  and  _169
REMARK   65  A    between atoms: _172  and  _174
REMARK   66  A    between atoms: _174  and  _175
REMARK   67  A    between atoms: _174  and  _177
REMARK   68  A    between atoms: _177  and  _178
REMARK   69  A    between atoms: _180  and  _182
REMARK   70  A    between atoms: _182  and  _183
REMARK   71  A    between atoms: _182  and  _185
REMARK   72  A    between atoms: _185  and  _186
REMARK   73  A    between atoms: _191  and  _193
REMARK   74  A    between atoms: _193  and  _194
REMARK   75  A    between atoms: _196  and  _198
REMARK   76  A    between atoms: _198  and  _199
REMARK   77  A    between atoms: _198  and  _201
REMARK   78  A    between atoms: _201  and  _202
REMARK   79  A    between atoms: _207  and  _208
REMARK   80  A    between atoms: _210  and  _212
REMARK   81  A    between atoms: _212  and  _213
REMARK   82  A    between atoms: _212  and  _215
REMARK   83  A    between atoms: _215  and  _216
REMARK   84  A    between atoms: _221  and  _222
REMARK   85  A    between atoms: _224  and  _226
REMARK   86  A    between atoms: _226  and  _227
REMARK   87  A    between atoms: _226  and  _229
REMARK   88  A    between atoms: _229  and  _230
REMARK   89  A    between atoms: _232  and  _234
REMARK   90  A    between atoms: _234  and  _235
REMARK   91  A    between atoms: _234  and  _237
REMARK   92  A    between atoms: _237  and  _238
REMARK   93  A    between atoms: _238  and  _239
REMARK   94  A    between atoms: _239  and  _240
REMARK   95  A    between atoms: _249  and  _251
REMARK   96  A    between atoms: _251  and  _252
REMARK   97  A    between atoms: _251  and  _254
REMARK   98  A    between atoms: _254  and  _255
REMARK   99  A    between atoms: _257  and  _259
REMARK  100  A    between atoms: _259  and  _260
REMARK  101  A    between atoms: _259  and  _262
REMARK  102  A    between atoms: _262  and  _263
REMARK  103  A    between atoms: _263  and  _264
REMARK  104  A    between atoms: _270  and  _271
REMARK  105  A    between atoms: _276  and  _278
REMARK  106  A    between atoms: _278  and  _279
REMARK  107  A    between atoms: _278  and  _281
REMARK  108  A    between atoms: _281  and  _282
REMARK  109  A    between atoms: _285  and  _287
REMARK  110  A    between atoms: _287  and  _288
REMARK  111  A    between atoms: _287  and  _290
REMARK  112  A    between atoms: _290  and  _291
REMARK  113  A    between atoms: _291  and  _292
REMARK  114  A    between atoms: _292  and  _293
REMARK  115  A    between atoms: _303  and  _304
REMARK  116  A    between atoms: _309  and  _311
REMARK  117  A    between atoms: _311  and  _312
REMARK  118  A    between atoms: _311  and  _314
REMARK  119  A    between atoms: _314  and  _315
REMARK  120  A    between atoms: _315  and  _316
REMARK  121  A    between atoms: _319  and  _321
REMARK  122  A    between atoms: _321  and  _322
REMARK  123  A    between atoms: _321  and  _324
REMARK  124  A    between atoms: _324  and  _325
REMARK  125  A    between atoms: _327  and  _329
REMARK  126  A    between atoms: _329  and  _330
REMARK  127  A    between atoms: _329  and  _332
REMARK  128  A    between atoms: _332  and  _333
REMARK  129  A    between atoms: _343  and  _345
REMARK  130  A    between atoms: _345  and  _346
REMARK  131  A    between atoms: _345  and  _348
REMARK  132  A    between atoms: _348  and  _349
REMARK  133  A    between atoms: _349  and  _350
REMARK  134  A    between atoms: _353  and  _355
REMARK  135  A    between atoms: _355  and  _356
REMARK  136  A    between atoms: _355  and  _358
REMARK  137  A    between atoms: _358  and  _359
REMARK  138  A    between atoms: _362  and  _364
REMARK  139  A    between atoms: _364  and  _365
REMARK  140  A    between atoms: _364  and  _367
REMARK  141  A    between atoms: _367  and  _368
REMARK  142  A    between atoms: _371  and  _373
REMARK  143  A    between atoms: _373  and  _374
REMARK  144  A    between atoms: _373  and  _376
REMARK  145  A    between atoms: _376  and  _377
REMARK  146  A    between atoms: _377  and  _378
REMARK  147  A    between atoms: _378  and  _379
REMARK  148  A    between atoms: _388  and  _390
REMARK  149  A    between atoms: _390  and  _391
REMARK  150  A    between atoms: _394  and  _396
REMARK  151  A    between atoms: _396  and  _397
REMARK  152  A    between atoms: _400  and  _402
REMARK  153  A    between atoms: _402  and  _403
REMARK  154  A    between atoms: _406  and  _408
REMARK  155  A    between atoms: _408  and  _409
REMARK  156  A    between atoms: _408  and  _411
REMARK  157  A    between atoms: _411  and  _412
REMARK  158  A    between atoms: _414  and  _416
REMARK  159  A    between atoms: _416  and  _417
REMARK  160  A    between atoms: _419  and  _421
REMARK  161  A    between atoms: _421  and  _422
REMARK  162  A    between atoms: _421  and  _424
REMARK  163  A    between atoms: _424  and  _425
REMARK  164  A    between atoms: _435  and  _437
REMARK  165  A    between atoms: _437  and  _438
REMARK  166  A    between atoms: _437  and  _440
REMARK  167  A    between atoms: _440  and  _441
REMARK  168  A    between atoms: _444  and  _446
REMARK  169  A    between atoms: _446  and  _447
REMARK  170  A    between atoms: _446  and  _449
REMARK  171  A    between atoms: _449  and  _450
REMARK  172  A    between atoms: _456  and  _458
REMARK  173  A    between atoms: _458  and  _459
REMARK  174  A    between atoms: _458  and  _461
REMARK  175  A    between atoms: _461  and  _462
REMARK  176  A    between atoms: _462  and  _463
REMARK  177  A    between atoms: _468  and  _470
REMARK  178  A    between atoms: _470  and  _471
REMARK  179  A    between atoms: _470  and  _473
REMARK  180  A    between atoms: _473  and  _474
REMARK  181  A    between atoms: _484  and  _486
REMARK  182  A    between atoms: _486  and  _487
REMARK  183  A    between atoms: _486  and  _489
REMARK  184  A    between atoms: _489  and  _490
REMARK  185  A    between atoms: _501  and  _502
REMARK  186  A    between atoms: _507  and  _509
REMARK  187  A    between atoms: _509  and  _510
REMARK  188  A    between atoms: _509  and  _512
REMARK  189  A    between atoms: _512  and  _513
REMARK  190  A    between atoms: _513  and  _514
REMARK  191  A    between atoms: _517  and  _519
REMARK  192  A    between atoms: _519  and  _520
REMARK  193  A    between atoms: _519  and  _522
REMARK  194  A    between atoms: _522  and  _523
REMARK  195  A    between atoms: _523  and  _524
REMARK  196  A    between atoms: _524  and  _525
REMARK  197  A    between atoms: _525  and  _526
REMARK  198  A    between atoms: _530  and  _532
REMARK  199  A    between atoms: _532  and  _533
REMARK  200  A    between atoms: _535  and  _537
REMARK  201  A    between atoms: _537  and  _538
REMARK  202  A    between atoms: _537  and  _540
REMARK  203  A    between atoms: _540  and  _541
REMARK  204  A    between atoms: _541  and  _542
REMARK  205  A    between atoms: _545  and  _547
REMARK  206  A    between atoms: _547  and  _548
REMARK  207  A    between atoms: _547  and  _550
REMARK  208  A    between atoms: _550  and  _551
REMARK  209  A    between atoms: _556  and  _557
REMARK  210  A    between atoms: _559  and  _561
REMARK  211  A    between atoms: _561  and  _562
REMARK  212  A    between atoms: _561  and  _564
REMARK  213  A    between atoms: _564  and  _565
REMARK  214  A    between atoms: _565  and  _566
REMARK  215  A    between atoms: _571  and  _573
REMARK  216  A    between atoms: _573  and  _574
REMARK  217  A    between atoms: _573  and  _576
REMARK  218  A    between atoms: _576  and  _577
REMARK  219  A    between atoms: _583  and  _585
REMARK  220  A    between atoms: _585  and  _586
REMARK  221  A    between atoms: _588  and  _590
REMARK  222  A    between atoms: _590  and  _591
REMARK  223  A    between atoms: _590  and  _593
REMARK  224  A    between atoms: _593  and  _594
REMARK  225  A    between atoms: _604  and  _606
REMARK  226  A    between atoms: _606  and  _607
REMARK  227  A    between atoms: _606  and  _609
REMARK  228  A    between atoms: _609  and  _610
REMARK                            x       y       z     vdW  Elec       q    Type
REMARK                         _______ _______ _______ _____ _____    ______ ____
ROOT
ATOM      1  C   VAL A   5      12.813  53.938  16.864  0.00  0.00    +0.241 C 
ATOM      2  N   TYR A   6      13.483  52.890  17.331  0.00  0.00    -0.297 N 
ATOM      3  H   TYR A   6      14.002  52.999  18.226  0.00  0.00    +0.150 HD
ATOM      4  O   VAL A   5      12.253  53.968  15.772  0.00  0.00    -0.273 OA
ENDROOT
BRANCH   1   5
ATOM      5  CA  VAL A   5      12.788  55.157  17.761  0.00  0.00    +0.149 C 
BRANCH   5   7
ATOM      6  C   GLU A   4      13.827  56.745  16.258  0.00  0.00    +0.241 C 
ATOM      7  N   VAL A   5      12.747  56.328  16.909  0.00  0.00    -0.297 N 
ATOM      8  H   VAL A   5      11.855  56.852  16.805  0.00  0.00    +0.150 HD
ATOM      9  O   GLU A   4      14.921  56.205  16.372  0.00  0.00    -0.273 OA
BRANCH   6  10
ATOM     10  CA  GLU A   4      13.663  57.965  15.363  0.00  0.00    +0.149 C 
BRANCH  10  12
ATOM     11  C   ARG A   3      15.320  59.648  14.740  0.00  0.00    +0.241 C 
ATOM     12  N   GLU A   4      15.004  58.411  15.083  0.00  0.00    -0.297 N 
ATOM     13  H   GLU A   4      15.773  57.715  15.155  0.00  0.00    +0.150 HD
ATOM     14  O   ARG A   3      14.500  60.527  14.634  0.00  0.00    -0.273 OA
BRANCH  11  15
ATOM     15  CA  ARG A   3      16.815  59.892  14.559  0.00  0.00    +0.149 C 
BRANCH  15  18
ATOM     16  C   PHE A   2      18.296  57.927  14.474  0.00  0.00    +0.241 C 
ATOM     17  O   PHE A   2      18.592  57.947  15.690  0.00  0.00    -0.273 OA
ATOM     18  N   ARG A   3      17.434  58.744  13.882  0.00  0.00    -0.297 N 
ATOM     19  H   ARG A   3      17.184  58.563  12.889  0.00  0.00    +0.150 HD
BRANCH  16  20
ATOM     20  CA  PHE A   2      18.936  56.950  13.515  0.00  0.00    +0.153 C 
BRANCH  20  22
ATOM     21  C   ARG A   1      20.118  58.325  11.898  0.00  0.00    +0.238 C 
ATOM     22  N   PHE A   2      20.131  57.592  13.008  0.00  0.00    -0.297 N 
ATOM     23  H   PHE A   2      21.025  57.477  13.527  0.00  0.00    +0.150 HD
ATOM     24  O   ARG A   1      19.099  58.503  11.223  0.00  0.00    -0.274 OA
BRANCH  21  25
ATOM     25  CA  ARG A   1      21.460  58.912  11.439  0.00  0.00    +0.145 C 
BRANCH  25  26
ATOM     26  N   ARG A   1      22.506  58.825  12.458  0.00  0.00    -0.238 NA
ATOM     27  H   ARG A   1      23.338  58.225  12.286  0.00  0.00    +0.142 HD
ENDBRANCH  25  26
BRANCH  25  28
ATOM     28  CB  ARG A   1      21.922  58.225  10.148  0.00  0.00    +0.030 C 
BRANCH  28  29
ATOM     29  CG  ARG A   1      21.954  56.720  10.264  0.00  0.00    +0.045 C 
BRANCH  29  30
ATOM     30  CD  ARG A   1      22.748  56.032   9.185  0.00  0.00    +0.174 C 
BRANCH  30  31
ATOM     31  NE  ARG A   1      22.152  56.101   7.848  0.00  0.00    -0.265 N 
ATOM     32  HE  ARG A   1      22.317  56.969   7.300  0.00  0.00    +0.259 HD
ATOM     33  CZ  ARG A   1      21.416  55.147   7.272  0.00  0.00    +0.342 C 
ATOM     34  NH2 ARG A   1      21.103  54.031   7.902  0.00  0.00    -0.292 N 
ATOM     35 HH21 ARG A   1      21.431  53.874   8.876  0.00  0.00    +0.255 HD
ATOM     36 HH22 ARG A   1      20.528  53.308   7.424  0.00  0.00    +0.255 HD
ATOM     37  NH1 ARG A   1      20.990  55.305   6.033  0.00  0.00    -0.292 N 
ATOM     38 HH11 ARG A   1      20.417  54.564   5.582  0.00  0.00    +0.255 HD
ATOM     39 HH12 ARG A   1      21.228  56.171   5.508  0.00  0.00    +0.255 HD
ENDBRANCH  30  31
ENDBRANCH  29  30
ENDBRANCH  28  29
ENDBRANCH  25  28
ENDBRANCH  21  25
ENDBRANCH  20  22
BRANCH  20  40
ATOM     40  CB  PHE A   2      19.290  55.602  14.142  0.00  0.00    +0.055 C 
BRANCH  40  41
ATOM     41  CG  PHE A   2      19.948  54.673  13.158  0.00  0.00    -0.020 A 
ATOM     42  CD2 PHE A   2      21.200  54.130  13.389  0.00  0.00    -0.004 A 
ATOM     43  CE2 PHE A   2      21.776  53.293  12.476  0.00  0.00    -0.000 A 
ATOM     44  CZ  PHE A   2      21.130  52.989  11.314  0.00  0.00    -0.000 A 
ATOM     45  CE1 PHE A   2      19.870  53.505  11.081  0.00  0.00    -0.000 A 
ATOM     46  CD1 PHE A   2      19.302  54.359  11.980  0.00  0.00    -0.004 A 
ENDBRANCH  40  41
ENDBRANCH  20  40
ENDBRANCH  16  20
ENDBRANCH  15  18
BRANCH  15  47
ATOM     47  CB  ARG A   3      17.124  61.182  13.816  0.00  0.00    +0.033 C 
BRANCH  47  48
ATOM     48  CG  ARG A   3      16.972  61.095  12.387  0.00  0.00    +0.045 C 
BRANCH  48  49
ATOM     49  CD  ARG A   3      17.490  62.344  11.664  0.00  0.00    +0.174 C 
BRANCH  49  50
ATOM     50  NE  ARG A   3      17.520  62.014  10.258  0.00  0.00    -0.265 N 
ATOM     51  HE  ARG A   3      16.600  61.913   9.783  0.00  0.00    +0.259 HD
ATOM     52  CZ  ARG A   3      18.606  61.825   9.505  0.00  0.00    +0.342 C 
ATOM     53  NH2 ARG A   3      19.839  62.012   9.950  0.00  0.00    -0.292 N 
ATOM     54 HH21 ARG A   3      19.997  62.321  10.930  0.00  0.00    +0.255 HD
ATOM     55 HH22 ARG A   3      20.650  61.850   9.319  0.00  0.00    +0.255 HD
ATOM     56  NH1 ARG A   3      18.443  61.454   8.251  0.00  0.00    -0.292 N 
ATOM     57 HH11 ARG A   3      17.485  61.315   7.870  0.00  0.00    +0.255 HD
ATOM     58 HH12 ARG A   3      19.272  61.300   7.642  0.00  0.00    +0.255 HD
ENDBRANCH  49  50
ENDBRANCH  48  49
ENDBRANCH  47  48
ENDBRANCH  15  47
ENDBRANCH  11  15
ENDBRANCH  10  12
BRANCH  10  59
ATOM     59  CB  GLU A   4      12.931  57.629  14.064  0.00  0.00    +0.041 C 
BRANCH  59  60
ATOM     60  CG  GLU A   4      13.692  56.656  13.152  0.00  0.00    +0.116 C 
BRANCH  60  61
ATOM     61  CD  GLU A   4      14.795  57.340  12.359  0.00  0.00    +0.365 C 
ATOM     62  OE2 GLU A   4      15.859  56.737  12.164  0.00  0.00    -0.246 OA
ATOM     63  OE1 GLU A   4      14.615  58.498  11.926  0.00  0.00    -0.246 OA
ENDBRANCH  60  61
ENDBRANCH  59  60
ENDBRANCH  10  59
ENDBRANCH   6  10
ENDBRANCH   5   7
BRANCH   5  64
ATOM     64  CB  VAL A   5      11.573  55.105  18.704  0.00  0.00    +0.027 C 
ATOM     65  CG2 VAL A   5      11.919  54.396  20.016  0.00  0.00    +0.002 C 
ATOM     66  CG1 VAL A   5      10.369  54.429  18.013  0.00  0.00    +0.002 C 
ENDBRANCH   5  64
ENDBRANCH   1   5
BRANCH   2  67
ATOM     67  CA  TYR A   6      13.532  51.586  16.655  0.00  0.00    +0.153 C 
BRANCH  67  68
ATOM     68  C   TYR A   6      12.972  50.541  17.572  0.00  0.00    +0.241 C 
ATOM     69  O   TYR A   6      13.090  50.629  18.803  0.00  0.00    -0.273 OA
ATOM     70  N   TYR A   7      12.349  49.545  16.983  0.00  0.00    -0.297 N 
ATOM     71  H   TYR A   7      12.364  49.472  15.946  0.00  0.00    +0.150 HD
BRANCH  70  72
ATOM     72  CA  TYR A   7      11.641  48.546  17.759  0.00  0.00    +0.153 C 
BRANCH  72  73
ATOM     73  C   TYR A   7      12.599  47.694  18.607  0.00  0.00    +0.241 C 
ATOM     74  O   TYR A   7      12.614  47.833  19.810  0.00  0.00    -0.273 OA
ATOM     75  N   TRP A   8      13.384  46.791  18.018  0.00  0.00    -0.297 N 
ATOM     76  H   TRP A   8      13.465  46.736  16.983  0.00  0.00    +0.150 HD
BRANCH  75  77
ATOM     77  CA  TRP A   8      14.126  45.881  18.892  0.00  0.00    +0.153 C 
BRANCH  77  78
ATOM     78  C   TRP A   8      15.220  46.592  19.664  0.00  0.00    +0.241 C 
ATOM     79  O   TRP A   8      15.479  46.241  20.800  0.00  0.00    -0.273 OA
ATOM     80  N   ASP A   9      15.781  47.661  19.091  0.00  0.00    -0.297 N 
ATOM     81  H   ASP A   9      15.494  47.956  18.136  0.00  0.00    +0.150 HD
BRANCH  80  82
ATOM     82  CA  ASP A   9      16.816  48.422  19.829  0.00  0.00    +0.160 C 
BRANCH  82  83
ATOM     83  C   ASP A   9      16.292  48.866  21.164  0.00  0.00    +0.241 C 
ATOM     84  O   ASP A   9      17.040  48.919  22.149  0.00  0.00    -0.273 OA
ATOM     85  N   SER A  10      15.026  49.277  21.152  0.00  0.00    -0.296 N 
ATOM     86  H   SER A  10      14.448  49.187  20.292  0.00  0.00    +0.150 HD
BRANCH  85  87
ATOM     87  CA  SER A  10      14.474  49.847  22.350  0.00  0.00    +0.166 C 
BRANCH  87  88
ATOM     88  C   SER A  10      14.463  48.900  23.522  0.00  0.00    +0.229 C 
ATOM     89  O   SER A  10      14.576  49.326  24.664  0.00  0.00    -0.286 OA
ENDBRANCH  87  88
BRANCH  87  90
ATOM     90  CB  SER A  10      13.095  50.414  22.077  0.00  0.00    +0.165 C 
BRANCH  90  91
ATOM     91  OG  SER A  10      13.202  51.547  21.234  0.00  0.00    -0.380 OA
ATOM     92  H   SER A  10      13.623  51.282  20.378  0.00  0.00    +0.211 HD
ENDBRANCH  90  91
ENDBRANCH  87  90
ENDBRANCH  85  87
ENDBRANCH  82  83
BRANCH  82  93
ATOM     93  CB  ASP A   9      17.278  49.671  19.095  0.00  0.00    +0.143 C 
BRANCH  93  94
ATOM     94  CG  ASP A   9      17.850  49.378  17.724  0.00  0.00    +0.367 C 
ATOM     95  OD2 ASP A   9      19.002  49.779  17.465  0.00  0.00    -0.246 OA
ATOM     96  OD1 ASP A   9      17.117  48.781  16.926  0.00  0.00    -0.246 OA
ENDBRANCH  93  94
ENDBRANCH  82  93
ENDBRANCH  80  82
ENDBRANCH  77  78
BRANCH  77  97
ATOM     97  CB  TRP A   8      14.600  44.583  18.232  0.00  0.00    +0.057 C 
BRANCH  97  98
ATOM     98  CG  TRP A   8      15.724  44.614  17.230  0.00  0.00    -0.002 A 
ATOM     99  CD2 TRP A   8      16.708  43.587  17.067  0.00  0.00    +0.013 A 
ATOM    100  CE3 TRP A   8      16.972  42.385  17.727  0.00  0.00    +0.001 A 
ATOM    101  CZ3 TRP A   8      18.041  41.641  17.321  0.00  0.00    +0.000 A 
ATOM    102  CH2 TRP A   8      18.809  42.021  16.235  0.00  0.00    +0.001 A 
ATOM    103  CZ2 TRP A   8      18.569  43.165  15.539  0.00  0.00    +0.017 A 
ATOM    104  CE2 TRP A   8      17.504  43.942  15.960  0.00  0.00    +0.056 A 
ATOM    105  NE1 TRP A   8      17.050  45.139  15.486  0.00  0.00    -0.352 N 
ATOM    106  HE1 TRP A   8      17.452  45.665  14.684  0.00  0.00    +0.166 HD
ATOM    107  CD1 TRP A   8      15.964  45.537  16.252  0.00  0.00    +0.068 A 
ENDBRANCH  97  98
ENDBRANCH  77  97
ENDBRANCH  75  77
ENDBRANCH  72  73
BRANCH  72 108
ATOM    108  CB  TYR A   7      10.784  47.690  16.834  0.00  0.00    +0.055 C 
BRANCH 108 109
ATOM    109  CG  TYR A   7       9.903  46.642  17.483  0.00  0.00    -0.020 A 
ATOM    110  CD2 TYR A   7       9.783  46.519  18.849  0.00  0.00    -0.001 A 
ATOM    111  CE2 TYR A   7       8.937  45.582  19.424  0.00  0.00    +0.036 A 
ATOM    112  CZ  TYR A   7       8.234  44.714  18.623  0.00  0.00    +0.134 A 
ATOM    113  CE1 TYR A   7       8.346  44.827  17.249  0.00  0.00    +0.036 A 
ATOM    114  CD1 TYR A   7       9.173  45.765  16.701  0.00  0.00    -0.001 A 
BRANCH 112 115
ATOM    115  OH  TYR A   7       7.413  43.796  19.195  0.00  0.00    -0.506 OA
ATOM    116  HH  TYR A   7       6.481  43.962  18.905  0.00  0.00    +0.292 HD
ENDBRANCH 112 115
ENDBRANCH 108 109
ENDBRANCH  72 108
ENDBRANCH  70  72
ENDBRANCH  67  68
BRANCH  67 117
ATOM    117  CB  TYR A   6      14.964  51.221  16.238  0.00  0.00    +0.055 C 
BRANCH 117 118
ATOM    118  CG  TYR A   6      15.316  51.977  14.986  0.00  0.00    -0.020 A 
ATOM    119  CD2 TYR A   6      15.701  53.323  15.056  0.00  0.00    -0.001 A 
ATOM    120  CE2 TYR A   6      15.928  54.068  13.894  0.00  0.00    +0.036 A 
ATOM    121  CZ  TYR A   6      15.734  53.464  12.645  0.00  0.00    +0.134 A 
ATOM    122  CE1 TYR A   6      15.354  52.123  12.573  0.00  0.00    +0.036 A 
ATOM    123  CD1 TYR A   6      15.132  51.408  13.726  0.00  0.00    -0.001 A 
BRANCH 121 124
ATOM    124  OH  TYR A   6      15.946  54.219  11.520  0.00  0.00    -0.506 OA
ATOM    125  HH  TYR A   6      16.206  55.137  11.784  0.00  0.00    +0.292 HD
ENDBRANCH 121 124
ENDBRANCH 117 118
ENDBRANCH  67 117
ENDBRANCH   2  67
TORSDOF 46
REMARK  Name = ../refined-set-2016/2jg0/2jg0_pocket.pdb
REMARK  228 active torsions:
REMARK  status: ('A' for Active; 'I' for Inactive)
REMARK    1  A    between atoms: _1  and  _3
REMARK    2  A    between atoms: _3  and  _4
REMARK    3  A    between atoms: _3  and  _6
REMARK    4  A    between atoms: _6  and  _7
REMARK    5  A    between atoms: _10  and  _12
REMARK    6  A    between atoms: _12  and  _13
REMARK    7  A    between atoms: _12  and  _15
REMARK    8  A    between atoms: _15  and  _16
REMARK    9  A    between atoms: _16  and  _17
REMARK   10  A    between atoms: _22  and  _24
REMARK   11  A    between atoms: _24  and  _25
REMARK   12  A    between atoms: _24  and  _27
REMARK   13  A    between atoms: _27  and  _28
REMARK   14  A    between atoms: _28  and  _29
REMARK   15  A    between atoms: _29  and  _30
REMARK   16  A    between atoms: _30  and  _31
REMARK   17  A    between atoms: _35  and  _37
REMARK   18  A    between atoms: _37  and  _38
REMARK   19  A    between atoms: _37  and  _40
REMARK   20  A    between atoms: _44  and  _45
REMARK   21  A    between atoms: _50  and  _52
REMARK   22  A    between atoms: _52  and  _53
REMARK   23  A    between atoms: _55  and  _57
REMARK   24  A    between atoms: _57  and  _58
REMARK   25  A    between atoms: _57  and  _60
REMARK   26  A    between atoms: _60  and  _61
REMARK   27  A    between atoms: _61  and  _62
REMARK   28  A    between atoms: _62  and  _63
REMARK   29  A    between atoms: _72  and  _74
REMARK   30  A    between atoms: _74  and  _75
REMARK   31  A    between atoms: _74  and  _77
REMARK   32  A    between atoms: _77  and  _78
REMARK   33  A    between atoms: _84  and  _86
REMARK   34  A    between atoms: _86  and  _87
REMARK   35  A    between atoms: _86  and  _89
REMARK   36  A    between atoms: _89  and  _90
REMARK   37  A    between atoms: _90  and  _91
REMARK   38  A    between atoms: _91  and  _92
REMARK   39  A    between atoms: _101  and  _103
REMARK   40  A    between atoms: _103  and  _104
REMARK   41  A    between atoms: _103  and  _106
REMARK   42  A    between atoms: _106  and  _107
REMARK   43  A    between atoms: _107  and  _108
REMARK   44  A    between atoms: _111  and  _113
REMARK   45  A    between atoms: _113  and  _114
REMARK   46  A    between atoms: _113  and  _116
REMARK   47  A    between atoms: _119  and  _121
REMARK   48  A    between atoms: _121  and  _122
REMARK   49  A    between atoms: _121  and  _124
REMARK   50  A    between atoms: _124  and  _125
REMARK   51  A    between atoms: _130  and  _131
REMARK   52  A    between atoms: _133  and  _135
REMARK   53  A    between atoms: _135  and  _136
REMARK   54  A    between atoms: _135  and  _138
REMARK   55  A    between atoms: _138  and  _139
REMARK   56  A    between atoms: _144  and  _145
REMARK   57  A    between atoms: _147  and  _149
REMARK   58  A    between atoms: _149  and  _150
REMARK   59  A    between atoms: _149  and  _152
REMARK   60  A    between atoms: _152  and  _153
REMARK   61  A    between atoms: _163  and  _165
REMARK   62  A    between atoms: _165  and  _166
REMARK   63  A    between atoms: _165  and  _168
REMARK   64  A    between atoms: _168  and  _169
REMARK   65  A    between atoms: _172  and  _174
REMARK   66  A    between atoms: _174  and  _175
REMARK   67  A    between atoms: _174  and  _177
REMARK   68  A    between atoms: _177  and  _178
REMARK   69  A    between atoms: _180  and  _182
REMARK   70  A    between atoms: _182  and  _183
REMARK   71  A    between atoms: _182  and  _185
REMARK   72  A    between atoms: _185  and  _186
REMARK   73  A    between atoms: _191  and  _193
REMARK   74  A    between atoms: _193  and  _194
REMARK   75  A    between atoms: _196  and  _198
REMARK   76  A    between atoms: _198  and  _199
REMARK   77  A    between atoms: _198  and  _201
REMARK   78  A    between atoms: _201  and  _202
REMARK   79  A    between atoms: _207  and  _208
REMARK   80  A    between atoms: _210  and  _212
REMARK   81  A    between atoms: _212  and  _213
REMARK   82  A    between atoms: _212  and  _215
REMARK   83  A    between atoms: _215  and  _216
REMARK   84  A    between atoms: _221  and  _222
REMARK   85  A    between atoms: _224  and  _226
REMARK   86  A    between atoms: _226  and  _227
REMARK   87  A    between atoms: _226  and  _229
REMARK   88  A    between atoms: _229  and  _230
REMARK   89  A    between atoms: _232  and  _234
REMARK   90  A    between atoms: _234  and  _235
REMARK   91  A    between atoms: _234  and  _237
REMARK   92  A    between atoms: _237  and  _238
REMARK   93  A    between atoms: _238  and  _239
REMARK   94  A    between atoms: _239  and  _240
REMARK   95  A    between atoms: _249  and  _251
REMARK   96  A    between atoms: _251  and  _252
REMARK   97  A    between atoms: _251  and  _254
REMARK   98  A    between atoms: _254  and  _255
REMARK   99  A    between atoms: _257  and  _259
REMARK  100  A    between atoms: _259  and  _260
REMARK  101  A    between atoms: _259  and  _262
REMARK  102  A    between atoms: _262  and  _263
REMARK  103  A    between atoms: _263  and  _264
REMARK  104  A    between atoms: _270  and  _271
REMARK  105  A    between atoms: _276  and  _278
REMARK  106  A    between atoms: _278  and  _279
REMARK  107  A    between atoms: _278  and  _281
REMARK  108  A    between atoms: _281  and  _282
REMARK  109  A    between atoms: _285  and  _287
REMARK  110  A    between atoms: _287  and  _288
REMARK  111  A    between atoms: _287  and  _290
REMARK  112  A    between atoms: _290  and  _291
REMARK  113  A    between atoms: _291  and  _292
REMARK  114  A    between atoms: _292  and  _293
REMARK  115  A    between atoms: _303  and  _304
REMARK  116  A    between atoms: _309  and  _311
REMARK  117  A    between atoms: _311  and  _312
REMARK  118  A    between atoms: _311  and  _314
REMARK  119  A    between atoms: _314  and  _315
REMARK  120  A    between atoms: _315  and  _316
REMARK  121  A    between atoms: _319  and  _321
REMARK  122  A    between atoms: _321  and  _322
REMARK  123  A    between atoms: _321  and  _324
REMARK  124  A    between atoms: _324  and  _325
REMARK  125  A    between atoms: _327  and  _329
REMARK  126  A    between atoms: _329  and  _330
REMARK  127  A    between atoms: _329  and  _332
REMARK  128  A    between atoms: _332  and  _333
REMARK  129  A    between atoms: _343  and  _345
REMARK  130  A    between atoms: _345  and  _346
REMARK  131  A    between atoms: _345  and  _348
REMARK  132  A    between atoms: _348  and  _349
REMARK  133  A    between atoms: _349  and  _350
REMARK  134  A    between atoms: _353  and  _355
REMARK  135  A    between atoms: _355  and  _356
REMARK  136  A    between atoms: _355  and  _358
REMARK  137  A    between atoms: _358  and  _359
REMARK  138  A    between atoms: _362  and  _364
REMARK  139  A    between atoms: _364  and  _365
REMARK  140  A    between atoms: _364  and  _367
REMARK  141  A    between atoms: _367  and  _368
REMARK  142  A    between atoms: _371  and  _373
REMARK  143  A    between atoms: _373  and  _374
REMARK  144  A    between atoms: _373  and  _376
REMARK  145  A    between atoms: _376  and  _377
REMARK  146  A    between atoms: _377  and  _378
REMARK  147  A    between atoms: _378  and  _379
REMARK  148  A    between atoms: _388  and  _390
REMARK  149  A    between atoms: _390  and  _391
REMARK  150  A    between atoms: _394  and  _396
REMARK  151  A    between atoms: _396  and  _397
REMARK  152  A    between atoms: _400  and  _402
REMARK  153  A    between atoms: _402  and  _403
REMARK  154  A    between atoms: _406  and  _408
REMARK  155  A    between atoms: _408  and  _409
REMARK  156  A    between atoms: _408  and  _411
REMARK  157  A    between atoms: _411  and  _412
REMARK  158  A    between atoms: _414  and  _416
REMARK  159  A    between atoms: _416  and  _417
REMARK  160  A    between atoms: _419  and  _421
REMARK  161  A    between atoms: _421  and  _422
REMARK  162  A    between atoms: _421  and  _424
REMARK  163  A    between atoms: _424  and  _425
REMARK  164  A    between atoms: _435  and  _437
REMARK  165  A    between atoms: _437  and  _438
REMARK  166  A    between atoms: _437  and  _440
REMARK  167  A    between atoms: _440  and  _441
REMARK  168  A    between atoms: _444  and  _446
REMARK  169  A    between atoms: _446  and  _447
REMARK  170  A    between atoms: _446  and  _449
REMARK  171  A    between atoms: _449  and  _450
REMARK  172  A    between atoms: _456  and  _458
REMARK  173  A    between atoms: _458  and  _459
REMARK  174  A    between atoms: _458  and  _461
REMARK  175  A    between atoms: _461  and  _462
REMARK  176  A    between atoms: _462  and  _463
REMARK  177  A    between atoms: _468  and  _470
REMARK  178  A    between atoms: _470  and  _471
REMARK  179  A    between atoms: _470  and  _473
REMARK  180  A    between atoms: _473  and  _474
REMARK  181  A    between atoms: _484  and  _486
REMARK  182  A    between atoms: _486  and  _487
REMARK  183  A    between atoms: _486  and  _489
REMARK  184  A    between atoms: _489  and  _490
REMARK  185  A    between atoms: _501  and  _502
REMARK  186  A    between atoms: _507  and  _509
REMARK  187  A    between atoms: _509  and  _510
REMARK  188  A    between atoms: _509  and  _512
REMARK  189  A    between atoms: _512  and  _513
REMARK  190  A    between atoms: _513  and  _514
REMARK  191  A    between atoms: _517  and  _519
REMARK  192  A    between atoms: _519  and  _520
REMARK  193  A    between atoms: _519  and  _522
REMARK  194  A    between atoms: _522  and  _523
REMARK  195  A    between atoms: _523  and  _524
REMARK  196  A    between atoms: _524  and  _525
REMARK  197  A    between atoms: _525  and  _526
REMARK  198  A    between atoms: _530  and  _532
REMARK  199  A    between atoms: _532  and  _533
REMARK  200  A    between atoms: _535  and  _537
REMARK  201  A    between atoms: _537  and  _538
REMARK  202  A    between atoms: _537  and  _540
REMARK  203  A    between atoms: _540  and  _541
REMARK  204  A    between atoms: _541  and  _542
REMARK  205  A    between atoms: _545  and  _547
REMARK  206  A    between atoms: _547  and  _548
REMARK  207  A    between atoms: _547  and  _550
REMARK  208  A    between atoms: _550  and  _551
REMARK  209  A    between atoms: _556  and  _557
REMARK  210  A    between atoms: _559  and  _561
REMARK  211  A    between atoms: _561  and  _562
REMARK  212  A    between atoms: _561  and  _564
REMARK  213  A    between atoms: _564  and  _565
REMARK  214  A    between atoms: _565  and  _566
REMARK  215  A    between atoms: _571  and  _573
REMARK  216  A    between atoms: _573  and  _574
REMARK  217  A    between atoms: _573  and  _576
REMARK  218  A    between atoms: _576  and  _577
REMARK  219  A    between atoms: _583  and  _585
REMARK  220  A    between atoms: _585  and  _586
REMARK  221  A    between atoms: _588  and  _590
REMARK  222  A    between atoms: _590  and  _591
REMARK  223  A    between atoms: _590  and  _593
REMARK  224  A    between atoms: _593  and  _594
REMARK  225  A    between atoms: _604  and  _606
REMARK  226  A    between atoms: _606  and  _607
REMARK  227  A    between atoms: _606  and  _609
REMARK  228  A    between atoms: _609  and  _610
REMARK                            x       y       z     vdW  Elec       q    Type
REMARK                         _______ _______ _______ _____ _____    ______ ____
ROOT
ATOM      1  CA  ASN A   1      10.573  49.212  12.270  0.00  0.00    +0.154 C 
ENDROOT
BRANCH   1   2
ATOM      2  C   ASN A   1      11.098  50.390  13.103  0.00  0.00    +0.239 C 
ATOM      3  O   ASN A   1      11.923  50.210  13.979  0.00  0.00    -0.274 OA
ATOM      4  N   GLY A   2      10.574  51.569  12.812  0.00  0.00    -0.297 N 
ATOM      5  H   GLY A   2       9.974  51.645  11.966  0.00  0.00    +0.150 HD
BRANCH   4   6
ATOM      6  CA  GLY A   2      10.792  52.773  13.615  0.00  0.00    +0.163 C 
BRANCH   6   7
ATOM      7  C   GLY A   2       9.641  53.726  13.343  0.00  0.00    +0.229 C 
ATOM      8  O   GLY A   2       8.768  53.430  12.505  0.00  0.00    -0.286 OA
ENDBRANCH   6   7
ENDBRANCH   4   6
ENDBRANCH   1   2
BRANCH   1   9
ATOM      9  N   ASN A   1       9.124  49.281  12.092  0.00  0.00    -0.238 NA
ATOM     10  H   ASN A   1       8.727  49.088  11.150  0.00  0.00    +0.142 HD
ENDBRANCH   1   9
BRANCH   1  11
ATOM     11  CB  ASN A   1      11.164  49.118  10.871  0.00  0.00    +0.111 C 
BRANCH  11  12
ATOM     12  CG  ASN A   1      12.683  48.977  10.795  0.00  0.00    +0.221 C 
ATOM     13  OD1 ASN A   1      13.506  49.392  11.650  0.00  0.00    -0.275 OA
ATOM     14  ND2 ASN A   1      13.059  48.466   9.675  0.00  0.00    -0.329 N 
ATOM     15 HD21 ASN A   1      14.072  48.386   9.454  0.00  0.00    +0.145 HD
ATOM     16 HD22 ASN A   1      12.350  48.133   8.991  0.00  0.00    +0.145 HD
ENDBRANCH  11  12
ENDBRANCH   1  11
TORSDOF 6
REMARK  Name = ../refined-set-2016/2jg0/2jg0_pocket.pdb
REMARK  228 active torsions:
REMARK  status: ('A' for Active; 'I' for Inactive)
REMARK    1  A    between atoms: _1  and  _3
REMARK    2  A    between atoms: _3  and  _4
REMARK    3  A    between atoms: _3  and  _6
REMARK    4  A    between atoms: _6  and  _7
REMARK    5  A    between atoms: _10  and  _12
REMARK    6  A    between atoms: _12  and  _13
REMARK    7  A    between atoms: _12  and  _15
REMARK    8  A    between atoms: _15  and  _16
REMARK    9  A    between atoms: _16  and  _17
REMARK   10  A    between atoms: _22  and  _24
REMARK   11  A    between atoms: _24  and  _25
REMARK   12  A    between atoms: _24  and  _27
REMARK   13  A    between atoms: _27  and  _28
REMARK   14  A    between atoms: _28  and  _29
REMARK   15  A    between atoms: _29  and  _30
REMARK   16  A    between atoms: _30  and  _31
REMARK   17  A    between atoms: _35  and  _37
REMARK   18  A    between atoms: _37  and  _38
REMARK   19  A    between atoms: _37  and  _40
REMARK   20  A    between atoms: _44  and  _45
REMARK   21  A    between atoms: _50  and  _52
REMARK   22  A    between atoms: _52  and  _53
REMARK   23  A    between atoms: _55  and  _57
REMARK   24  A    between atoms: _57  and  _58
REMARK   25  A    between atoms: _57  and  _60
REMARK   26  A    between atoms: _60  and  _61
REMARK   27  A    between atoms: _61  and  _62
REMARK   28  A    between atoms: _62  and  _63
REMARK   29  A    between atoms: _72  and  _74
REMARK   30  A    between atoms: _74  and  _75
REMARK   31  A    between atoms: _74  and  _77
REMARK   32  A    between atoms: _77  and  _78
REMARK   33  A    between atoms: _84  and  _86
REMARK   34  A    between atoms: _86  and  _87
REMARK   35  A    between atoms: _86  and  _89
REMARK   36  A    between atoms: _89  and  _90
REMARK   37  A    between atoms: _90  and  _91
REMARK   38  A    between atoms: _91  and  _92
REMARK   39  A    between atoms: _101  and  _103
REMARK   40  A    between atoms: _103  and  _104
REMARK   41  A    between atoms: _103  and  _106
REMARK   42  A    between atoms: _106  and  _107
REMARK   43  A    between atoms: _107  and  _108
REMARK   44  A    between atoms: _111  and  _113
REMARK   45  A    between atoms: _113  and  _114
REMARK   46  A    between atoms: _113  and  _116
REMARK   47  A    between atoms: _119  and  _121
REMARK   48  A    between atoms: _121  and  _122
REMARK   49  A    between atoms: _121  and  _124
REMARK   50  A    between atoms: _124  and  _125
REMARK   51  A    between atoms: _130  and  _131
REMARK   52  A    between atoms: _133  and  _135
REMARK   53  A    between atoms: _135  and  _136
REMARK   54  A    between atoms: _135  and  _138
REMARK   55  A    between atoms: _138  and  _139
REMARK   56  A    between atoms: _144  and  _145
REMARK   57  A    between atoms: _147  and  _149
REMARK   58  A    between atoms: _149  and  _150
REMARK   59  A    between atoms: _149  and  _152
REMARK   60  A    between atoms: _152  and  _153
REMARK   61  A    between atoms: _163  and  _165
REMARK   62  A    between atoms: _165  and  _166
REMARK   63  A    between atoms: _165  and  _168
REMARK   64  A    between atoms: _168  and  _169
REMARK   65  A    between atoms: _172  and  _174
REMARK   66  A    between atoms: _174  and  _175
REMARK   67  A    between atoms: _174  and  _177
REMARK   68  A    between atoms: _177  and  _178
REMARK   69  A    between atoms: _180  and  _182
REMARK   70  A    between atoms: _182  and  _183
REMARK   71  A    between atoms: _182  and  _185
REMARK   72  A    between atoms: _185  and  _186
REMARK   73  A    between atoms: _191  and  _193
REMARK   74  A    between atoms: _193  and  _194
REMARK   75  A    between atoms: _196  and  _198
REMARK   76  A    between atoms: _198  and  _199
REMARK   77  A    between atoms: _198  and  _201
REMARK   78  A    between atoms: _201  and  _202
REMARK   79  A    between atoms: _207  and  _208
REMARK   80  A    between atoms: _210  and  _212
REMARK   81  A    between atoms: _212  and  _213
REMARK   82  A    between atoms: _212  and  _215
REMARK   83  A    between atoms: _215  and  _216
REMARK   84  A    between atoms: _221  and  _222
REMARK   85  A    between atoms: _224  and  _226
REMARK   86  A    between atoms: _226  and  _227
REMARK   87  A    between atoms: _226  and  _229
REMARK   88  A    between atoms: _229  and  _230
REMARK   89  A    between atoms: _232  and  _234
REMARK   90  A    between atoms: _234  and  _235
REMARK   91  A    between atoms: _234  and  _237
REMARK   92  A    between atoms: _237  and  _238
REMARK   93  A    between atoms: _238  and  _239
REMARK   94  A    between atoms: _239  and  _240
REMARK   95  A    between atoms: _249  and  _251
REMARK   96  A    between atoms: _251  and  _252
REMARK   97  A    between atoms: _251  and  _254
REMARK   98  A    between atoms: _254  and  _255
REMARK   99  A    between atoms: _257  and  _259
REMARK  100  A    between atoms: _259  and  _260
REMARK  101  A    between atoms: _259  and  _262
REMARK  102  A    between atoms: _262  and  _263
REMARK  103  A    between atoms: _263  and  _264
REMARK  104  A    between atoms: _270  and  _271
REMARK  105  A    between atoms: _276  and  _278
REMARK  106  A    between atoms: _278  and  _279
REMARK  107  A    between atoms: _278  and  _281
REMARK  108  A    between atoms: _281  and  _282
REMARK  109  A    between atoms: _285  and  _287
REMARK  110  A    between atoms: _287  and  _288
REMARK  111  A    between atoms: _287  and  _290
REMARK  112  A    between atoms: _290  and  _291
REMARK  113  A    between atoms: _291  and  _292
REMARK  114  A    between atoms: _292  and  _293
REMARK  115  A    between atoms: _303  and  _304
REMARK  116  A    between atoms: _309  and  _311
REMARK  117  A    between atoms: _311  and  _312
REMARK  118  A    between atoms: _311  and  _314
REMARK  119  A    between atoms: _314  and  _315
REMARK  120  A    between atoms: _315  and  _316
REMARK  121  A    between atoms: _319  and  _321
REMARK  122  A    between atoms: _321  and  _322
REMARK  123  A    between atoms: _321  and  _324
REMARK  124  A    between atoms: _324  and  _325
REMARK  125  A    between atoms: _327  and  _329
REMARK  126  A    between atoms: _329  and  _330
REMARK  127  A    between atoms: _329  and  _332
REMARK  128  A    between atoms: _332  and  _333
REMARK  129  A    between atoms: _343  and  _345
REMARK  130  A    between atoms: _345  and  _346
REMARK  131  A    between atoms: _345  and  _348
REMARK  132  A    between atoms: _348  and  _349
REMARK  133  A    between atoms: _349  and  _350
REMARK  134  A    between atoms: _353  and  _355
REMARK  135  A    between atoms: _355  and  _356
REMARK  136  A    between atoms: _355  and  _358
REMARK  137  A    between atoms: _358  and  _359
REMARK  138  A    between atoms: _362  and  _364
REMARK  139  A    between atoms: _364  and  _365
REMARK  140  A    between atoms: _364  and  _367
REMARK  141  A    between atoms: _367  and  _368
REMARK  142  A    between atoms: _371  and  _373
REMARK  143  A    between atoms: _373  and  _374
REMARK  144  A    between atoms: _373  and  _376
REMARK  145  A    between atoms: _376  and  _377
REMARK  146  A    between atoms: _377  and  _378
REMARK  147  A    between atoms: _378  and  _379
REMARK  148  A    between atoms: _388  and  _390
REMARK  149  A    between atoms: _390  and  _391
REMARK  150  A    between atoms: _394  and  _396
REMARK  151  A    between atoms: _396  and  _397
REMARK  152  A    between atoms: _400  and  _402
REMARK  153  A    between atoms: _402  and  _403
REMARK  154  A    between atoms: _406  and  _408
REMARK  155  A    between atoms: _408  and  _409
REMARK  156  A    between atoms: _408  and  _411
REMARK  157  A    between atoms: _411  and  _412
REMARK  158  A    between atoms: _414  and  _416
REMARK  159  A    between atoms: _416  and  _417
REMARK  160  A    between atoms: _419  and  _421
REMARK  161  A    between atoms: _421  and  _422
REMARK  162  A    between atoms: _421  and  _424
REMARK  163  A    between atoms: _424  and  _425
REMARK  164  A    between atoms: _435  and  _437
REMARK  165  A    between atoms: _437  and  _438
REMARK  166  A    between atoms: _437  and  _440
REMARK  167  A    between atoms: _440  and  _441
REMARK  168  A    between atoms: _444  and  _446
REMARK  169  A    between atoms: _446  and  _447
REMARK  170  A    between atoms: _446  and  _449
REMARK  171  A    between atoms: _449  and  _450
REMARK  172  A    between atoms: _456  and  _458
REMARK  173  A    between atoms: _458  and  _459
REMARK  174  A    between atoms: _458  and  _461
REMARK  175  A    between atoms: _461  and  _462
REMARK  176  A    between atoms: _462  and  _463
REMARK  177  A    between atoms: _468  and  _470
REMARK  178  A    between atoms: _470  and  _471
REMARK  179  A    between atoms: _470  and  _473
REMARK  180  A    between atoms: _473  and  _474
REMARK  181  A    between atoms: _484  and  _486
REMARK  182  A    between atoms: _486  and  _487
REMARK  183  A    between atoms: _486  and  _489
REMARK  184  A    between atoms: _489  and  _490
REMARK  185  A    between atoms: _501  and  _502
REMARK  186  A    between atoms: _507  and  _509
REMARK  187  A    between atoms: _509  and  _510
REMARK  188  A    between atoms: _509  and  _512
REMARK  189  A    between atoms: _512  and  _513
REMARK  190  A    between atoms: _513  and  _514
REMARK  191  A    between atoms: _517  and  _519
REMARK  192  A    between atoms: _519  and  _520
REMARK  193  A    between atoms: _519  and  _522
REMARK  194  A    between atoms: _522  and  _523
REMARK  195  A    between atoms: _523  and  _524
REMARK  196  A    between atoms: _524  and  _525
REMARK  197  A    between atoms: _525  and  _526
REMARK  198  A    between atoms: _530  and  _532
REMARK  199  A    between atoms: _532  and  _533
REMARK  200  A    between atoms: _535  and  _537
REMARK  201  A    between atoms: _537  and  _538
REMARK  202  A    between atoms: _537  and  _540
REMARK  203  A    between atoms: _540  and  _541
REMARK  204  A    between atoms: _541  and  _542
REMARK  205  A    between atoms: _545  and  _547
REMARK  206  A    between atoms: _547  and  _548
REMARK  207  A    between atoms: _547  and  _550
REMARK  208  A    between atoms: _550  and  _551
REMARK  209  A    between atoms: _556  and  _557
REMARK  210  A    between atoms: _559  and  _561
REMARK  211  A    between atoms: _561  and  _562
REMARK  212  A    between atoms: _561  and  _564
REMARK  213  A    between atoms: _564  and  _565
REMARK  214  A    between atoms: _565  and  _566
REMARK  215  A    between atoms: _571  and  _573
REMARK  216  A    between atoms: _573  and  _574
REMARK  217  A    between atoms: _573  and  _576
REMARK  218  A    between atoms: _576  and  _577
REMARK  219  A    between atoms: _583  and  _585
REMARK  220  A    between atoms: _585  and  _586
REMARK  221  A    between atoms: _588  and  _590
REMARK  222  A    between atoms: _590  and  _591
REMARK  223  A    between atoms: _590  and  _593
REMARK  224  A    between atoms: _593  and  _594
REMARK  225  A    between atoms: _604  and  _606
REMARK  226  A    between atoms: _606  and  _607
REMARK  227  A    between atoms: _606  and  _609
REMARK  228  A    between atoms: _609  and  _610
REMARK                            x       y       z     vdW  Elec       q    Type
REMARK                         _______ _______ _______ _____ _____    ______ ____
ROOT
ATOM      1  C   TYR A   1       9.017  53.306   6.054  0.00  0.00    +0.239 C 
ATOM      2  N   TYR A   2       8.686  53.203   7.351  0.00  0.00    -0.298 N 
ATOM      3  H   TYR A   2       8.349  54.052   7.848  0.00  0.00    +0.150 HD
ATOM      4  O   TYR A   1       9.520  52.392   5.414  0.00  0.00    -0.274 OA
ENDROOT
BRANCH   1   5
ATOM      5  CA  TYR A   1       8.708  54.620   5.349  0.00  0.00    +0.149 C 
BRANCH   5   6
ATOM      6  N   TYR A   1       8.060  55.608   6.186  0.00  0.00    -0.238 NA
ATOM      7  H   TYR A   1       8.623  56.401   6.553  0.00  0.00    +0.142 HD
ENDBRANCH   5   6
BRANCH   5   8
ATOM      8  CB  TYR A   1       9.940  55.192   4.651  0.00  0.00    +0.053 C 
BRANCH   8   9
ATOM      9  CG  TYR A   1      10.979  55.851   5.534  0.00  0.00    -0.020 A 
ATOM     10  CD2 TYR A   1      11.892  55.107   6.244  0.00  0.00    -0.001 A 
ATOM     11  CE2 TYR A   1      12.829  55.718   7.049  0.00  0.00    +0.036 A 
ATOM     12  CZ  TYR A   1      12.895  57.089   7.131  0.00  0.00    +0.134 A 
ATOM     13  CE1 TYR A   1      11.982  57.850   6.450  0.00  0.00    +0.036 A 
ATOM     14  CD1 TYR A   1      11.041  57.230   5.662  0.00  0.00    -0.001 A 
BRANCH  12  15
ATOM     15  OH  TYR A   1      13.835  57.648   7.914  0.00  0.00    -0.506 OA
ATOM     16  HH  TYR A   1      14.404  58.247   7.368  0.00  0.00    +0.292 HD
ENDBRANCH  12  15
ENDBRANCH   8   9
ENDBRANCH   5   8
ENDBRANCH   1   5
BRANCH   2  17
ATOM     17  CA  TYR A   2       8.778  51.961   8.087  0.00  0.00    +0.141 C 
BRANCH  17  18
ATOM     18  C   TYR A   2       7.437  51.291   8.388  0.00  0.00    +0.227 C 
ATOM     19  O   TYR A   2       7.407  50.224   8.990  0.00  0.00    -0.286 OA
ENDBRANCH  17  18
BRANCH  17  20
ATOM     20  CB  TYR A   2       9.489  52.216   9.417  0.00  0.00    +0.054 C 
BRANCH  20  21
ATOM     21  CG  TYR A   2      10.961  52.522   9.339  0.00  0.00    -0.020 A 
ATOM     22  CD2 TYR A   2      11.554  53.368  10.276  0.00  0.00    -0.001 A 
ATOM     23  CE2 TYR A   2      12.937  53.654  10.230  0.00  0.00    +0.036 A 
ATOM     24  CZ  TYR A   2      13.701  53.122   9.219  0.00  0.00    +0.134 A 
ATOM     25  CE1 TYR A   2      13.120  52.330   8.255  0.00  0.00    +0.036 A 
ATOM     26  CD1 TYR A   2      11.748  52.027   8.318  0.00  0.00    -0.001 A 
BRANCH  24  27
ATOM     27  OH  TYR A   2      15.056  53.394   9.136  0.00  0.00    -0.506 OA
ATOM     28  HH  TYR A   2      15.506  53.077   9.959  0.00  0.00    +0.292 HD
ENDBRANCH  24  27
ENDBRANCH  20  21
ENDBRANCH  17  20
ENDBRANCH   2  17
TORSDOF 10
REMARK  Name = ../refined-set-2016/2jg0/2jg0_pocket.pdb
REMARK  228 active torsions:
REMARK  status: ('A' for Active; 'I' for Inactive)
REMARK    1  A    between atoms: _1  and  _3
REMARK    2  A    between atoms: _3  and  _4
REMARK    3  A    between atoms: _3  and  _6
REMARK    4  A    between atoms: _6  and  _7
REMARK    5  A    between atoms: _10  and  _12
REMARK    6  A    between atoms: _12  and  _13
REMARK    7  A    between atoms: _12  and  _15
REMARK    8  A    between atoms: _15  and  _16
REMARK    9  A    between atoms: _16  and  _17
REMARK   10  A    between atoms: _22  and  _24
REMARK   11  A    between atoms: _24  and  _25
REMARK   12  A    between atoms: _24  and  _27
REMARK   13  A    between atoms: _27  and  _28
REMARK   14  A    between atoms: _28  and  _29
REMARK   15  A    between atoms: _29  and  _30
REMARK   16  A    between atoms: _30  and  _31
REMARK   17  A    between atoms: _35  and  _37
REMARK   18  A    between atoms: _37  and  _38
REMARK   19  A    between atoms: _37  and  _40
REMARK   20  A    between atoms: _44  and  _45
REMARK   21  A    between atoms: _50  and  _52
REMARK   22  A    between atoms: _52  and  _53
REMARK   23  A    between atoms: _55  and  _57
REMARK   24  A    between atoms: _57  and  _58
REMARK   25  A    between atoms: _57  and  _60
REMARK   26  A    between atoms: _60  and  _61
REMARK   27  A    between atoms: _61  and  _62
REMARK   28  A    between atoms: _62  and  _63
REMARK   29  A    between atoms: _72  and  _74
REMARK   30  A    between atoms: _74  and  _75
REMARK   31  A    between atoms: _74  and  _77
REMARK   32  A    between atoms: _77  and  _78
REMARK   33  A    between atoms: _84  and  _86
REMARK   34  A    between atoms: _86  and  _87
REMARK   35  A    between atoms: _86  and  _89
REMARK   36  A    between atoms: _89  and  _90
REMARK   37  A    between atoms: _90  and  _91
REMARK   38  A    between atoms: _91  and  _92
REMARK   39  A    between atoms: _101  and  _103
REMARK   40  A    between atoms: _103  and  _104
REMARK   41  A    between atoms: _103  and  _106
REMARK   42  A    between atoms: _106  and  _107
REMARK   43  A    between atoms: _107  and  _108
REMARK   44  A    between atoms: _111  and  _113
REMARK   45  A    between atoms: _113  and  _114
REMARK   46  A    between atoms: _113  and  _116
REMARK   47  A    between atoms: _119  and  _121
REMARK   48  A    between atoms: _121  and  _122
REMARK   49  A    between atoms: _121  and  _124
REMARK   50  A    between atoms: _124  and  _125
REMARK   51  A    between atoms: _130  and  _131
REMARK   52  A    between atoms: _133  and  _135
REMARK   53  A    between atoms: _135  and  _136
REMARK   54  A    between atoms: _135  and  _138
REMARK   55  A    between atoms: _138  and  _139
REMARK   56  A    between atoms: _144  and  _145
REMARK   57  A    between atoms: _147  and  _149
REMARK   58  A    between atoms: _149  and  _150
REMARK   59  A    between atoms: _149  and  _152
REMARK   60  A    between atoms: _152  and  _153
REMARK   61  A    between atoms: _163  and  _165
REMARK   62  A    between atoms: _165  and  _166
REMARK   63  A    between atoms: _165  and  _168
REMARK   64  A    between atoms: _168  and  _169
REMARK   65  A    between atoms: _172  and  _174
REMARK   66  A    between atoms: _174  and  _175
REMARK   67  A    between atoms: _174  and  _177
REMARK   68  A    between atoms: _177  and  _178
REMARK   69  A    between atoms: _180  and  _182
REMARK   70  A    between atoms: _182  and  _183
REMARK   71  A    between atoms: _182  and  _185
REMARK   72  A    between atoms: _185  and  _186
REMARK   73  A    between atoms: _191  and  _193
REMARK   74  A    between atoms: _193  and  _194
REMARK   75  A    between atoms: _196  and  _198
REMARK   76  A    between atoms: _198  and  _199
REMARK   77  A    between atoms: _198  and  _201
REMARK   78  A    between atoms: _201  and  _202
REMARK   79  A    between atoms: _207  and  _208
REMARK   80  A    between atoms: _210  and  _212
REMARK   81  A    between atoms: _212  and  _213
REMARK   82  A    between atoms: _212  and  _215
REMARK   83  A    between atoms: _215  and  _216
REMARK   84  A    between atoms: _221  and  _222
REMARK   85  A    between atoms: _224  and  _226
REMARK   86  A    between atoms: _226  and  _227
REMARK   87  A    between atoms: _226  and  _229
REMARK   88  A    between atoms: _229  and  _230
REMARK   89  A    between atoms: _232  and  _234
REMARK   90  A    between atoms: _234  and  _235
REMARK   91  A    between atoms: _234  and  _237
REMARK   92  A    between atoms: _237  and  _238
REMARK   93  A    between atoms: _238  and  _239
REMARK   94  A    between atoms: _239  and  _240
REMARK   95  A    between atoms: _249  and  _251
REMARK   96  A    between atoms: _251  and  _252
REMARK   97  A    between atoms: _251  and  _254
REMARK   98  A    between atoms: _254  and  _255
REMARK   99  A    between atoms: _257  and  _259
REMARK  100  A    between atoms: _259  and  _260
REMARK  101  A    between atoms: _259  and  _262
REMARK  102  A    between atoms: _262  and  _263
REMARK  103  A    between atoms: _263  and  _264
REMARK  104  A    between atoms: _270  and  _271
REMARK  105  A    between atoms: _276  and  _278
REMARK  106  A    between atoms: _278  and  _279
REMARK  107  A    between atoms: _278  and  _281
REMARK  108  A    between atoms: _281  and  _282
REMARK  109  A    between atoms: _285  and  _287
REMARK  110  A    between atoms: _287  and  _288
REMARK  111  A    between atoms: _287  and  _290
REMARK  112  A    between atoms: _290  and  _291
REMARK  113  A    between atoms: _291  and  _292
REMARK  114  A    between atoms: _292  and  _293
REMARK  115  A    between atoms: _303  and  _304
REMARK  116  A    between atoms: _309  and  _311
REMARK  117  A    between atoms: _311  and  _312
REMARK  118  A    between atoms: _311  and  _314
REMARK  119  A    between atoms: _314  and  _315
REMARK  120  A    between atoms: _315  and  _316
REMARK  121  A    between atoms: _319  and  _321
REMARK  122  A    between atoms: _321  and  _322
REMARK  123  A    between atoms: _321  and  _324
REMARK  124  A    between atoms: _324  and  _325
REMARK  125  A    between atoms: _327  and  _329
REMARK  126  A    between atoms: _329  and  _330
REMARK  127  A    between atoms: _329  and  _332
REMARK  128  A    between atoms: _332  and  _333
REMARK  129  A    between atoms: _343  and  _345
REMARK  130  A    between atoms: _345  and  _346
REMARK  131  A    between atoms: _345  and  _348
REMARK  132  A    between atoms: _348  and  _349
REMARK  133  A    between atoms: _349  and  _350
REMARK  134  A    between atoms: _353  and  _355
REMARK  135  A    between atoms: _355  and  _356
REMARK  136  A    between atoms: _355  and  _358
REMARK  137  A    between atoms: _358  and  _359
REMARK  138  A    between atoms: _362  and  _364
REMARK  139  A    between atoms: _364  and  _365
REMARK  140  A    between atoms: _364  and  _367
REMARK  141  A    between atoms: _367  and  _368
REMARK  142  A    between atoms: _371  and  _373
REMARK  143  A    between atoms: _373  and  _374
REMARK  144  A    between atoms: _373  and  _376
REMARK  145  A    between atoms: _376  and  _377
REMARK  146  A    between atoms: _377  and  _378
REMARK  147  A    between atoms: _378  and  _379
REMARK  148  A    between atoms: _388  and  _390
REMARK  149  A    between atoms: _390  and  _391
REMARK  150  A    between atoms: _394  and  _396
REMARK  151  A    between atoms: _396  and  _397
REMARK  152  A    between atoms: _400  and  _402
REMARK  153  A    between atoms: _402  and  _403
REMARK  154  A    between atoms: _406  and  _408
REMARK  155  A    between atoms: _408  and  _409
REMARK  156  A    between atoms: _408  and  _411
REMARK  157  A    between atoms: _411  and  _412
REMARK  158  A    between atoms: _414  and  _416
REMARK  159  A    between atoms: _416  and  _417
REMARK  160  A    between atoms: _419  and  _421
REMARK  161  A    between atoms: _421  and  _422
REMARK  162  A    between atoms: _421  and  _424
REMARK  163  A    between atoms: _424  and  _425
REMARK  164  A    between atoms: _435  and  _437
REMARK  165  A    between atoms: _437  and  _438
REMARK  166  A    between atoms: _437  and  _440
REMARK  167  A    between atoms: _440  and  _441
REMARK  168  A    between atoms: _444  and  _446
REMARK  169  A    between atoms: _446  and  _447
REMARK  170  A    between atoms: _446  and  _449
REMARK  171  A    between atoms: _449  and  _450
REMARK  172  A    between atoms: _456  and  _458
REMARK  173  A    between atoms: _458  and  _459
REMARK  174  A    between atoms: _458  and  _461
REMARK  175  A    between atoms: _461  and  _462
REMARK  176  A    between atoms: _462  and  _463
REMARK  177  A    between atoms: _468  and  _470
REMARK  178  A    between atoms: _470  and  _471
REMARK  179  A    between atoms: _470  and  _473
REMARK  180  A    between atoms: _473  and  _474
REMARK  181  A    between atoms: _484  and  _486
REMARK  182  A    between atoms: _486  and  _487
REMARK  183  A    between atoms: _486  and  _489
REMARK  184  A    between atoms: _489  and  _490
REMARK  185  A    between atoms: _501  and  _502
REMARK  186  A    between atoms: _507  and  _509
REMARK  187  A    between atoms: _509  and  _510
REMARK  188  A    between atoms: _509  and  _512
REMARK  189  A    between atoms: _512  and  _513
REMARK  190  A    between atoms: _513  and  _514
REMARK  191  A    between atoms: _517  and  _519
REMARK  192  A    between atoms: _519  and  _520
REMARK  193  A    between atoms: _519  and  _522
REMARK  194  A    between atoms: _522  and  _523
REMARK  195  A    between atoms: _523  and  _524
REMARK  196  A    between atoms: _524  and  _525
REMARK  197  A    between atoms: _525  and  _526
REMARK  198  A    between atoms: _530  and  _532
REMARK  199  A    between atoms: _532  and  _533
REMARK  200  A    between atoms: _535  and  _537
REMARK  201  A    between atoms: _537  and  _538
REMARK  202  A    between atoms: _537  and  _540
REMARK  203  A    between atoms: _540  and  _541
REMARK  204  A    between atoms: _541  and  _542
REMARK  205  A    between atoms: _545  and  _547
REMARK  206  A    between atoms: _547  and  _548
REMARK  207  A    between atoms: _547  and  _550
REMARK  208  A    between atoms: _550  and  _551
REMARK  209  A    between atoms: _556  and  _557
REMARK  210  A    between atoms: _559  and  _561
REMARK  211  A    between atoms: _561  and  _562
REMARK  212  A    between atoms: _561  and  _564
REMARK  213  A    between atoms: _564  and  _565
REMARK  214  A    between atoms: _565  and  _566
REMARK  215  A    between atoms: _571  and  _573
REMARK  216  A    between atoms: _573  and  _574
REMARK  217  A    between atoms: _573  and  _576
REMARK  218  A    between atoms: _576  and  _577
REMARK  219  A    between atoms: _583  and  _585
REMARK  220  A    between atoms: _585  and  _586
REMARK  221  A    between atoms: _588  and  _590
REMARK  222  A    between atoms: _590  and  _591
REMARK  223  A    between atoms: _590  and  _593
REMARK  224  A    between atoms: _593  and  _594
REMARK  225  A    between atoms: _604  and  _606
REMARK  226  A    between atoms: _606  and  _607
REMARK  227  A    between atoms: _606  and  _609
REMARK  228  A    between atoms: _609  and  _610
REMARK                            x       y       z     vdW  Elec       q    Type
REMARK                         _______ _______ _______ _____ _____    ______ ____
ROOT
ATOM      1  C   ARG A   2       7.258  46.585   9.753  0.00  0.00    +0.241 C 
ATOM      2  N   SER A   3       7.678  45.554  10.470  0.00  0.00    -0.295 N 
ATOM      3  H   SER A   3       7.807  44.641   9.988  0.00  0.00    +0.150 HD
ATOM      4  O   ARG A   2       6.975  47.688  10.243  0.00  0.00    -0.273 OA
ENDROOT
BRANCH   2   5
ATOM      5  CA  SER A   3       7.966  45.625  11.879  0.00  0.00    +0.178 C 
BRANCH   5   6
ATOM      6  C   SER A   3       9.489  45.383  12.075  0.00  0.00    +0.243 C 
ATOM      7  N   GLN A   4       9.842  44.682  13.141  0.00  0.00    -0.297 N 
ATOM      8  H   GLN A   4       9.093  44.382  13.798  0.00  0.00    +0.150 HD
ATOM      9  O   SER A   3      10.318  45.922  11.315  0.00  0.00    -0.273 OA
BRANCH   7  10
ATOM     10  CA  GLN A   4      11.194  44.311  13.446  0.00  0.00    +0.149 C 
BRANCH  10  11
ATOM     11  C   GLN A   4      11.097  43.109  14.395  0.00  0.00    +0.244 C 
ATOM     12  N   PRO A   5      12.235  42.579  14.844  0.00  0.00    -0.273 N 
ATOM     13  CA  PRO A   5      12.151  41.450  15.747  0.00  0.00    +0.140 C 
ATOM     14  CB  PRO A   5      13.596  41.247  16.163  0.00  0.00    +0.030 C 
ATOM     15  CG  PRO A   5      14.364  41.685  14.961  0.00  0.00    +0.024 C 
ATOM     16  CD  PRO A   5      13.640  42.918  14.529  0.00  0.00    +0.094 C 
ATOM     17  O   GLN A   4      10.000  42.655  14.711  0.00  0.00    -0.273 OA
BRANCH  13  18
ATOM     18  C   PRO A   5      11.241  41.743  16.923  0.00  0.00    +0.227 C 
ATOM     19  O   PRO A   5      11.417  42.760  17.590  0.00  0.00    -0.286 OA
ENDBRANCH  13  18
ENDBRANCH  10  11
BRANCH  10  20
ATOM     20  CB  GLN A   4      11.951  45.505  14.066  0.00  0.00    +0.039 C 
BRANCH  20  21
ATOM     21  CG  GLN A   4      13.107  46.044  13.180  0.00  0.00    +0.087 C 
BRANCH  21  22
ATOM     22  CD  GLN A   4      14.040  46.981  13.900  0.00  0.00    +0.219 C 
ATOM     23  OE1 GLN A   4      13.734  47.423  14.998  0.00  0.00    -0.275 OA
ATOM     24  NE2 GLN A   4      15.254  47.222  13.323  0.00  0.00    -0.329 N 
ATOM     25 HE21 GLN A   4      15.960  47.802  13.820  0.00  0.00    +0.145 HD
ATOM     26 HE22 GLN A   4      15.472  46.826  12.387  0.00  0.00    +0.145 HD
ENDBRANCH  21  22
ENDBRANCH  20  21
ENDBRANCH  10  20
ENDBRANCH   7  10
ENDBRANCH   5   6
BRANCH   5  27
ATOM     27  CB  SER A   3       7.061  44.626  12.633  0.00  0.00    +0.166 C 
BRANCH  27  28
ATOM     28  OG  SER A   3       7.087  44.831  14.017  0.00  0.00    -0.380 OA
ATOM     29  H   SER A   3       6.771  45.747  14.220  0.00  0.00    +0.211 HD
ENDBRANCH  27  28
ENDBRANCH   5  27
ENDBRANCH   2   5
BRANCH   1  30
ATOM     30  CA  ARG A   2       7.147  46.320   8.262  0.00  0.00    +0.149 C 
BRANCH  30  32
ATOM     31  C   SER A   1       5.782  47.262   6.484  0.00  0.00    +0.241 C 
ATOM     32  N   ARG A   2       6.506  47.446   7.579  0.00  0.00    -0.297 N 
ATOM     33  H   ARG A   2       6.621  48.407   7.960  0.00  0.00    +0.150 HD
ATOM     34  O   SER A   1       5.583  46.143   6.014  0.00  0.00    -0.274 OA
BRANCH  31  35
ATOM     35  CA  SER A   1       5.227  48.513   5.799  0.00  0.00    +0.174 C 
BRANCH  35  36
ATOM     36  N   SER A   1       5.404  49.769   6.559  0.00  0.00    -0.236 NA
ATOM     37  H   SER A   1       6.067  50.483   6.195  0.00  0.00    +0.142 HD
ENDBRANCH  35  36
BRANCH  35  38
ATOM     38  CB  SER A   1       5.927  48.652   4.418  0.00  0.00    +0.163 C 
BRANCH  38  39
ATOM     39  OG  SER A   1       7.277  48.980   4.609  0.00  0.00    -0.380 OA
ATOM     40  H   SER A   1       7.718  48.265   5.133  0.00  0.00    +0.211 HD
ENDBRANCH  38  39
ENDBRANCH  35  38
ENDBRANCH  31  35
ENDBRANCH  30  32
BRANCH  30  41
ATOM     41  CB  ARG A   2       8.507  46.054   7.642  0.00  0.00    +0.033 C 
BRANCH  41  42
ATOM     42  CG  ARG A   2       9.470  47.229   7.698  0.00  0.00    +0.045 C 
BRANCH  42  43
ATOM     43  CD  ARG A   2      10.859  46.792   7.203  0.00  0.00    +0.174 C 
BRANCH  43  44
ATOM     44  NE  ARG A   2      11.824  47.881   7.116  0.00  0.00    -0.265 N 
ATOM     45  HE  ARG A   2      12.466  48.026   7.922  0.00  0.00    +0.259 HD
ATOM     46  CZ  ARG A   2      11.940  48.707   6.069  0.00  0.00    +0.342 C 
ATOM     47  NH2 ARG A   2      12.884  49.637   6.072  0.00  0.00    -0.292 N 
ATOM     48 HH21 ARG A   2      13.528  49.721   6.884  0.00  0.00    +0.255 HD
ATOM     49 HH22 ARG A   2      12.981  50.283   5.262  0.00  0.00    +0.255 HD
ATOM     50  NH1 ARG A   2      11.170  48.563   4.998  0.00  0.00    -0.292 N 
ATOM     51 HH11 ARG A   2      10.464  47.800   4.964  0.00  0.00    +0.255 HD
ATOM     52 HH12 ARG A   2      11.272  49.213   4.193  0.00  0.00    +0.255 HD
ENDBRANCH  43  44
ENDBRANCH  42  43
ENDBRANCH  41  42
ENDBRANCH  30  41
ENDBRANCH   1  30
TORSDOF 20
REMARK  Name = ../refined-set-2016/2jg0/2jg0_pocket.pdb
REMARK  228 active torsions:
REMARK  status: ('A' for Active; 'I' for Inactive)
REMARK    1  A    between atoms: _1  and  _3
REMARK    2  A    between atoms: _3  and  _4
REMARK    3  A    between atoms: _3  and  _6
REMARK    4  A    between atoms: _6  and  _7
REMARK    5  A    between atoms: _10  and  _12
REMARK    6  A    between atoms: _12  and  _13
REMARK    7  A    between atoms: _12  and  _15
REMARK    8  A    between atoms: _15  and  _16
REMARK    9  A    between atoms: _16  and  _17
REMARK   10  A    between atoms: _22  and  _24
REMARK   11  A    between atoms: _24  and  _25
REMARK   12  A    between atoms: _24  and  _27
REMARK   13  A    between atoms: _27  and  _28
REMARK   14  A    between atoms: _28  and  _29
REMARK   15  A    between atoms: _29  and  _30
REMARK   16  A    between atoms: _30  and  _31
REMARK   17  A    between atoms: _35  and  _37
REMARK   18  A    between atoms: _37  and  _38
REMARK   19  A    between atoms: _37  and  _40
REMARK   20  A    between atoms: _44  and  _45
REMARK   21  A    between atoms: _50  and  _52
REMARK   22  A    between atoms: _52  and  _53
REMARK   23  A    between atoms: _55  and  _57
REMARK   24  A    between atoms: _57  and  _58
REMARK   25  A    between atoms: _57  and  _60
REMARK   26  A    between atoms: _60  and  _61
REMARK   27  A    between atoms: _61  and  _62
REMARK   28  A    between atoms: _62  and  _63
REMARK   29  A    between atoms: _72  and  _74
REMARK   30  A    between atoms: _74  and  _75
REMARK   31  A    between atoms: _74  and  _77
REMARK   32  A    between atoms: _77  and  _78
REMARK   33  A    between atoms: _84  and  _86
REMARK   34  A    between atoms: _86  and  _87
REMARK   35  A    between atoms: _86  and  _89
REMARK   36  A    between atoms: _89  and  _90
REMARK   37  A    between atoms: _90  and  _91
REMARK   38  A    between atoms: _91  and  _92
REMARK   39  A    between atoms: _101  and  _103
REMARK   40  A    between atoms: _103  and  _104
REMARK   41  A    between atoms: _103  and  _106
REMARK   42  A    between atoms: _106  and  _107
REMARK   43  A    between atoms: _107  and  _108
REMARK   44  A    between atoms: _111  and  _113
REMARK   45  A    between atoms: _113  and  _114
REMARK   46  A    between atoms: _113  and  _116
REMARK   47  A    between atoms: _119  and  _121
REMARK   48  A    between atoms: _121  and  _122
REMARK   49  A    between atoms: _121  and  _124
REMARK   50  A    between atoms: _124  and  _125
REMARK   51  A    between atoms: _130  and  _131
REMARK   52  A    between atoms: _133  and  _135
REMARK   53  A    between atoms: _135  and  _136
REMARK   54  A    between atoms: _135  and  _138
REMARK   55  A    between atoms: _138  and  _139
REMARK   56  A    between atoms: _144  and  _145
REMARK   57  A    between atoms: _147  and  _149
REMARK   58  A    between atoms: _149  and  _150
REMARK   59  A    between atoms: _149  and  _152
REMARK   60  A    between atoms: _152  and  _153
REMARK   61  A    between atoms: _163  and  _165
REMARK   62  A    between atoms: _165  and  _166
REMARK   63  A    between atoms: _165  and  _168
REMARK   64  A    between atoms: _168  and  _169
REMARK   65  A    between atoms: _172  and  _174
REMARK   66  A    between atoms: _174  and  _175
REMARK   67  A    between atoms: _174  and  _177
REMARK   68  A    between atoms: _177  and  _178
REMARK   69  A    between atoms: _180  and  _182
REMARK   70  A    between atoms: _182  and  _183
REMARK   71  A    between atoms: _182  and  _185
REMARK   72  A    between atoms: _185  and  _186
REMARK   73  A    between atoms: _191  and  _193
REMARK   74  A    between atoms: _193  and  _194
REMARK   75  A    between atoms: _196  and  _198
REMARK   76  A    between atoms: _198  and  _199
REMARK   77  A    between atoms: _198  and  _201
REMARK   78  A    between atoms: _201  and  _202
REMARK   79  A    between atoms: _207  and  _208
REMARK   80  A    between atoms: _210  and  _212
REMARK   81  A    between atoms: _212  and  _213
REMARK   82  A    between atoms: _212  and  _215
REMARK   83  A    between atoms: _215  and  _216
REMARK   84  A    between atoms: _221  and  _222
REMARK   85  A    between atoms: _224  and  _226
REMARK   86  A    between atoms: _226  and  _227
REMARK   87  A    between atoms: _226  and  _229
REMARK   88  A    between atoms: _229  and  _230
REMARK   89  A    between atoms: _232  and  _234
REMARK   90  A    between atoms: _234  and  _235
REMARK   91  A    between atoms: _234  and  _237
REMARK   92  A    between atoms: _237  and  _238
REMARK   93  A    between atoms: _238  and  _239
REMARK   94  A    between atoms: _239  and  _240
REMARK   95  A    between atoms: _249  and  _251
REMARK   96  A    between atoms: _251  and  _252
REMARK   97  A    between atoms: _251  and  _254
REMARK   98  A    between atoms: _254  and  _255
REMARK   99  A    between atoms: _257  and  _259
REMARK  100  A    between atoms: _259  and  _260
REMARK  101  A    between atoms: _259  and  _262
REMARK  102  A    between atoms: _262  and  _263
REMARK  103  A    between atoms: _263  and  _264
REMARK  104  A    between atoms: _270  and  _271
REMARK  105  A    between atoms: _276  and  _278
REMARK  106  A    between atoms: _278  and  _279
REMARK  107  A    between atoms: _278  and  _281
REMARK  108  A    between atoms: _281  and  _282
REMARK  109  A    between atoms: _285  and  _287
REMARK  110  A    between atoms: _287  and  _288
REMARK  111  A    between atoms: _287  and  _290
REMARK  112  A    between atoms: _290  and  _291
REMARK  113  A    between atoms: _291  and  _292
REMARK  114  A    between atoms: _292  and  _293
REMARK  115  A    between atoms: _303  and  _304
REMARK  116  A    between atoms: _309  and  _311
REMARK  117  A    between atoms: _311  and  _312
REMARK  118  A    between atoms: _311  and  _314
REMARK  119  A    between atoms: _314  and  _315
REMARK  120  A    between atoms: _315  and  _316
REMARK  121  A    between atoms: _319  and  _321
REMARK  122  A    between atoms: _321  and  _322
REMARK  123  A    between atoms: _321  and  _324
REMARK  124  A    between atoms: _324  and  _325
REMARK  125  A    between atoms: _327  and  _329
REMARK  126  A    between atoms: _329  and  _330
REMARK  127  A    between atoms: _329  and  _332
REMARK  128  A    between atoms: _332  and  _333
REMARK  129  A    between atoms: _343  and  _345
REMARK  130  A    between atoms: _345  and  _346
REMARK  131  A    between atoms: _345  and  _348
REMARK  132  A    between atoms: _348  and  _349
REMARK  133  A    between atoms: _349  and  _350
REMARK  134  A    between atoms: _353  and  _355
REMARK  135  A    between atoms: _355  and  _356
REMARK  136  A    between atoms: _355  and  _358
REMARK  137  A    between atoms: _358  and  _359
REMARK  138  A    between atoms: _362  and  _364
REMARK  139  A    between atoms: _364  and  _365
REMARK  140  A    between atoms: _364  and  _367
REMARK  141  A    between atoms: _367  and  _368
REMARK  142  A    between atoms: _371  and  _373
REMARK  143  A    between atoms: _373  and  _374
REMARK  144  A    between atoms: _373  and  _376
REMARK  145  A    between atoms: _376  and  _377
REMARK  146  A    between atoms: _377  and  _378
REMARK  147  A    between atoms: _378  and  _379
REMARK  148  A    between atoms: _388  and  _390
REMARK  149  A    between atoms: _390  and  _391
REMARK  150  A    between atoms: _394  and  _396
REMARK  151  A    between atoms: _396  and  _397
REMARK  152  A    between atoms: _400  and  _402
REMARK  153  A    between atoms: _402  and  _403
REMARK  154  A    between atoms: _406  and  _408
REMARK  155  A    between atoms: _408  and  _409
REMARK  156  A    between atoms: _408  and  _411
REMARK  157  A    between atoms: _411  and  _412
REMARK  158  A    between atoms: _414  and  _416
REMARK  159  A    between atoms: _416  and  _417
REMARK  160  A    between atoms: _419  and  _421
REMARK  161  A    between atoms: _421  and  _422
REMARK  162  A    between atoms: _421  and  _424
REMARK  163  A    between atoms: _424  and  _425
REMARK  164  A    between atoms: _435  and  _437
REMARK  165  A    between atoms: _437  and  _438
REMARK  166  A    between atoms: _437  and  _440
REMARK  167  A    between atoms: _440  and  _441
REMARK  168  A    between atoms: _444  and  _446
REMARK  169  A    between atoms: _446  and  _447
REMARK  170  A    between atoms: _446  and  _449
REMARK  171  A    between atoms: _449  and  _450
REMARK  172  A    between atoms: _456  and  _458
REMARK  173  A    between atoms: _458  and  _459
REMARK  174  A    between atoms: _458  and  _461
REMARK  175  A    between atoms: _461  and  _462
REMARK  176  A    between atoms: _462  and  _463
REMARK  177  A    between atoms: _468  and  _470
REMARK  178  A    between atoms: _470  and  _471
REMARK  179  A    between atoms: _470  and  _473
REMARK  180  A    between atoms: _473  and  _474
REMARK  181  A    between atoms: _484  and  _486
REMARK  182  A    between atoms: _486  and  _487
REMARK  183  A    between atoms: _486  and  _489
REMARK  184  A    between atoms: _489  and  _490
REMARK  185  A    between atoms: _501  and  _502
REMARK  186  A    between atoms: _507  and  _509
REMARK  187  A    between atoms: _509  and  _510
REMARK  188  A    between atoms: _509  and  _512
REMARK  189  A    between atoms: _512  and  _513
REMARK  190  A    between atoms: _513  and  _514
REMARK  191  A    between atoms: _517  and  _519
REMARK  192  A    between atoms: _519  and  _520
REMARK  193  A    between atoms: _519  and  _522
REMARK  194  A    between atoms: _522  and  _523
REMARK  195  A    between atoms: _523  and  _524
REMARK  196  A    between atoms: _524  and  _525
REMARK  197  A    between atoms: _525  and  _526
REMARK  198  A    between atoms: _530  and  _532
REMARK  199  A    between atoms: _532  and  _533
REMARK  200  A    between atoms: _535  and  _537
REMARK  201  A    between atoms: _537  and  _538
REMARK  202  A    between atoms: _537  and  _540
REMARK  203  A    between atoms: _540  and  _541
REMARK  204  A    between atoms: _541  and  _542
REMARK  205  A    between atoms: _545  and  _547
REMARK  206  A    between atoms: _547  and  _548
REMARK  207  A    between atoms: _547  and  _550
REMARK  208  A    between atoms: _550  and  _551
REMARK  209  A    between atoms: _556  and  _557
REMARK  210  A    between atoms: _559  and  _561
REMARK  211  A    between atoms: _561  and  _562
REMARK  212  A    between atoms: _561  and  _564
REMARK  213  A    between atoms: _564  and  _565
REMARK  214  A    between atoms: _565  and  _566
REMARK  215  A    between atoms: _571  and  _573
REMARK  216  A    between atoms: _573  and  _574
REMARK  217  A    between atoms: _573  and  _576
REMARK  218  A    between atoms: _576  and  _577
REMARK  219  A    between atoms: _583  and  _585
REMARK  220  A    between atoms: _585  and  _586
REMARK  221  A    between atoms: _588  and  _590
REMARK  222  A    between atoms: _590  and  _591
REMARK  223  A    between atoms: _590  and  _593
REMARK  224  A    between atoms: _593  and  _594
REMARK  225  A    between atoms: _604  and  _606
REMARK  226  A    between atoms: _606  and  _607
REMARK  227  A    between atoms: _606  and  _609
REMARK  228  A    between atoms: _609  and  _610
REMARK                            x       y       z     vdW  Elec       q    Type
REMARK                         _______ _______ _______ _____ _____    ______ ____
ROOT
ATOM      1  CA  ASP A   1       7.391  43.700   4.396  0.00  0.00    +0.144 C 
ENDROOT
BRANCH   1   2
ATOM      2  N   ASP A   1       7.814  42.323   4.617  0.00  0.00    -0.239 NA
ATOM      3  H   ASP A   1       8.489  41.904   3.946  0.00  0.00    +0.142 HD
ENDBRANCH   1   2
BRANCH   1   4
ATOM      4  C   ASP A   1       6.210  43.725   3.416  0.00  0.00    +0.225 C 
ATOM      5  O   ASP A   1       6.157  42.913   2.504  0.00  0.00    -0.287 OA
ENDBRANCH   1   4
BRANCH   1   6
ATOM      6  CB  ASP A   1       8.587  44.467   3.828  0.00  0.00    +0.139 C 
BRANCH   6   7
ATOM      7  CG  ASP A   1       8.362  45.964   3.762  0.00  0.00    +0.367 C 
ATOM      8  OD2 ASP A   1       8.868  46.676   4.641  0.00  0.00    -0.246 OA
ATOM      9  OD1 ASP A   1       7.753  46.447   2.783  0.00  0.00    -0.246 OA
ENDBRANCH   6   7
ENDBRANCH   1   6
TORSDOF 4
REMARK  Name = ../refined-set-2016/2jg0/2jg0_pocket.pdb
REMARK  228 active torsions:
REMARK  status: ('A' for Active; 'I' for Inactive)
REMARK    1  A    between atoms: _1  and  _3
REMARK    2  A    between atoms: _3  and  _4
REMARK    3  A    between atoms: _3  and  _6
REMARK    4  A    between atoms: _6  and  _7
REMARK    5  A    between atoms: _10  and  _12
REMARK    6  A    between atoms: _12  and  _13
REMARK    7  A    between atoms: _12  and  _15
REMARK    8  A    between atoms: _15  and  _16
REMARK    9  A    between atoms: _16  and  _17
REMARK   10  A    between atoms: _22  and  _24
REMARK   11  A    between atoms: _24  and  _25
REMARK   12  A    between atoms: _24  and  _27
REMARK   13  A    between atoms: _27  and  _28
REMARK   14  A    between atoms: _28  and  _29
REMARK   15  A    between atoms: _29  and  _30
REMARK   16  A    between atoms: _30  and  _31
REMARK   17  A    between atoms: _35  and  _37
REMARK   18  A    between atoms: _37  and  _38
REMARK   19  A    between atoms: _37  and  _40
REMARK   20  A    between atoms: _44  and  _45
REMARK   21  A    between atoms: _50  and  _52
REMARK   22  A    between atoms: _52  and  _53
REMARK   23  A    between atoms: _55  and  _57
REMARK   24  A    between atoms: _57  and  _58
REMARK   25  A    between atoms: _57  and  _60
REMARK   26  A    between atoms: _60  and  _61
REMARK   27  A    between atoms: _61  and  _62
REMARK   28  A    between atoms: _62  and  _63
REMARK   29  A    between atoms: _72  and  _74
REMARK   30  A    between atoms: _74  and  _75
REMARK   31  A    between atoms: _74  and  _77
REMARK   32  A    between atoms: _77  and  _78
REMARK   33  A    between atoms: _84  and  _86
REMARK   34  A    between atoms: _86  and  _87
REMARK   35  A    between atoms: _86  and  _89
REMARK   36  A    between atoms: _89  and  _90
REMARK   37  A    between atoms: _90  and  _91
REMARK   38  A    between atoms: _91  and  _92
REMARK   39  A    between atoms: _101  and  _103
REMARK   40  A    between atoms: _103  and  _104
REMARK   41  A    between atoms: _103  and  _106
REMARK   42  A    between atoms: _106  and  _107
REMARK   43  A    between atoms: _107  and  _108
REMARK   44  A    between atoms: _111  and  _113
REMARK   45  A    between atoms: _113  and  _114
REMARK   46  A    between atoms: _113  and  _116
REMARK   47  A    between atoms: _119  and  _121
REMARK   48  A    between atoms: _121  and  _122
REMARK   49  A    between atoms: _121  and  _124
REMARK   50  A    between atoms: _124  and  _125
REMARK   51  A    between atoms: _130  and  _131
REMARK   52  A    between atoms: _133  and  _135
REMARK   53  A    between atoms: _135  and  _136
REMARK   54  A    between atoms: _135  and  _138
REMARK   55  A    between atoms: _138  and  _139
REMARK   56  A    between atoms: _144  and  _145
REMARK   57  A    between atoms: _147  and  _149
REMARK   58  A    between atoms: _149  and  _150
REMARK   59  A    between atoms: _149  and  _152
REMARK   60  A    between atoms: _152  and  _153
REMARK   61  A    between atoms: _163  and  _165
REMARK   62  A    between atoms: _165  and  _166
REMARK   63  A    between atoms: _165  and  _168
REMARK   64  A    between atoms: _168  and  _169
REMARK   65  A    between atoms: _172  and  _174
REMARK   66  A    between atoms: _174  and  _175
REMARK   67  A    between atoms: _174  and  _177
REMARK   68  A    between atoms: _177  and  _178
REMARK   69  A    between atoms: _180  and  _182
REMARK   70  A    between atoms: _182  and  _183
REMARK   71  A    between atoms: _182  and  _185
REMARK   72  A    between atoms: _185  and  _186
REMARK   73  A    between atoms: _191  and  _193
REMARK   74  A    between atoms: _193  and  _194
REMARK   75  A    between atoms: _196  and  _198
REMARK   76  A    between atoms: _198  and  _199
REMARK   77  A    between atoms: _198  and  _201
REMARK   78  A    between atoms: _201  and  _202
REMARK   79  A    between atoms: _207  and  _208
REMARK   80  A    between atoms: _210  and  _212
REMARK   81  A    between atoms: _212  and  _213
REMARK   82  A    between atoms: _212  and  _215
REMARK   83  A    between atoms: _215  and  _216
REMARK   84  A    between atoms: _221  and  _222
REMARK   85  A    between atoms: _224  and  _226
REMARK   86  A    between atoms: _226  and  _227
REMARK   87  A    between atoms: _226  and  _229
REMARK   88  A    between atoms: _229  and  _230
REMARK   89  A    between atoms: _232  and  _234
REMARK   90  A    between atoms: _234  and  _235
REMARK   91  A    between atoms: _234  and  _237
REMARK   92  A    between atoms: _237  and  _238
REMARK   93  A    between atoms: _238  and  _239
REMARK   94  A    between atoms: _239  and  _240
REMARK   95  A    between atoms: _249  and  _251
REMARK   96  A    between atoms: _251  and  _252
REMARK   97  A    between atoms: _251  and  _254
REMARK   98  A    between atoms: _254  and  _255
REMARK   99  A    between atoms: _257  and  _259
REMARK  100  A    between atoms: _259  and  _260
REMARK  101  A    between atoms: _259  and  _262
REMARK  102  A    between atoms: _262  and  _263
REMARK  103  A    between atoms: _263  and  _264
REMARK  104  A    between atoms: _270  and  _271
REMARK  105  A    between atoms: _276  and  _278
REMARK  106  A    between atoms: _278  and  _279
REMARK  107  A    between atoms: _278  and  _281
REMARK  108  A    between atoms: _281  and  _282
REMARK  109  A    between atoms: _285  and  _287
REMARK  110  A    between atoms: _287  and  _288
REMARK  111  A    between atoms: _287  and  _290
REMARK  112  A    between atoms: _290  and  _291
REMARK  113  A    between atoms: _291  and  _292
REMARK  114  A    between atoms: _292  and  _293
REMARK  115  A    between atoms: _303  and  _304
REMARK  116  A    between atoms: _309  and  _311
REMARK  117  A    between atoms: _311  and  _312
REMARK  118  A    between atoms: _311  and  _314
REMARK  119  A    between atoms: _314  and  _315
REMARK  120  A    between atoms: _315  and  _316
REMARK  121  A    between atoms: _319  and  _321
REMARK  122  A    between atoms: _321  and  _322
REMARK  123  A    between atoms: _321  and  _324
REMARK  124  A    between atoms: _324  and  _325
REMARK  125  A    between atoms: _327  and  _329
REMARK  126  A    between atoms: _329  and  _330
REMARK  127  A    between atoms: _329  and  _332
REMARK  128  A    between atoms: _332  and  _333
REMARK  129  A    between atoms: _343  and  _345
REMARK  130  A    between atoms: _345  and  _346
REMARK  131  A    between atoms: _345  and  _348
REMARK  132  A    between atoms: _348  and  _349
REMARK  133  A    between atoms: _349  and  _350
REMARK  134  A    between atoms: _353  and  _355
REMARK  135  A    between atoms: _355  and  _356
REMARK  136  A    between atoms: _355  and  _358
REMARK  137  A    between atoms: _358  and  _359
REMARK  138  A    between atoms: _362  and  _364
REMARK  139  A    between atoms: _364  and  _365
REMARK  140  A    between atoms: _364  and  _367
REMARK  141  A    between atoms: _367  and  _368
REMARK  142  A    between atoms: _371  and  _373
REMARK  143  A    between atoms: _373  and  _374
REMARK  144  A    between atoms: _373  and  _376
REMARK  145  A    between atoms: _376  and  _377
REMARK  146  A    between atoms: _377  and  _378
REMARK  147  A    between atoms: _378  and  _379
REMARK  148  A    between atoms: _388  and  _390
REMARK  149  A    between atoms: _390  and  _391
REMARK  150  A    between atoms: _394  and  _396
REMARK  151  A    between atoms: _396  and  _397
REMARK  152  A    between atoms: _400  and  _402
REMARK  153  A    between atoms: _402  and  _403
REMARK  154  A    between atoms: _406  and  _408
REMARK  155  A    between atoms: _408  and  _409
REMARK  156  A    between atoms: _408  and  _411
REMARK  157  A    between atoms: _411  and  _412
REMARK  158  A    between atoms: _414  and  _416
REMARK  159  A    between atoms: _416  and  _417
REMARK  160  A    between atoms: _419  and  _421
REMARK  161  A    between atoms: _421  and  _422
REMARK  162  A    between atoms: _421  and  _424
REMARK  163  A    between atoms: _424  and  _425
REMARK  164  A    between atoms: _435  and  _437
REMARK  165  A    between atoms: _437  and  _438
REMARK  166  A    between atoms: _437  and  _440
REMARK  167  A    between atoms: _440  and  _441
REMARK  168  A    between atoms: _444  and  _446
REMARK  169  A    between atoms: _446  and  _447
REMARK  170  A    between atoms: _446  and  _449
REMARK  171  A    between atoms: _449  and  _450
REMARK  172  A    between atoms: _456  and  _458
REMARK  173  A    between atoms: _458  and  _459
REMARK  174  A    between atoms: _458  and  _461
REMARK  175  A    between atoms: _461  and  _462
REMARK  176  A    between atoms: _462  and  _463
REMARK  177  A    between atoms: _468  and  _470
REMARK  178  A    between atoms: _470  and  _471
REMARK  179  A    between atoms: _470  and  _473
REMARK  180  A    between atoms: _473  and  _474
REMARK  181  A    between atoms: _484  and  _486
REMARK  182  A    between atoms: _486  and  _487
REMARK  183  A    between atoms: _486  and  _489
REMARK  184  A    between atoms: _489  and  _490
REMARK  185  A    between atoms: _501  and  _502
REMARK  186  A    between atoms: _507  and  _509
REMARK  187  A    between atoms: _509  and  _510
REMARK  188  A    between atoms: _509  and  _512
REMARK  189  A    between atoms: _512  and  _513
REMARK  190  A    between atoms: _513  and  _514
REMARK  191  A    between atoms: _517  and  _519
REMARK  192  A    between atoms: _519  and  _520
REMARK  193  A    between atoms: _519  and  _522
REMARK  194  A    between atoms: _522  and  _523
REMARK  195  A    between atoms: _523  and  _524
REMARK  196  A    between atoms: _524  and  _525
REMARK  197  A    between atoms: _525  and  _526
REMARK  198  A    between atoms: _530  and  _532
REMARK  199  A    between atoms: _532  and  _533
REMARK  200  A    between atoms: _535  and  _537
REMARK  201  A    between atoms: _537  and  _538
REMARK  202  A    between atoms: _537  and  _540
REMARK  203  A    between atoms: _540  and  _541
REMARK  204  A    between atoms: _541  and  _542
REMARK  205  A    between atoms: _545  and  _547
REMARK  206  A    between atoms: _547  and  _548
REMARK  207  A    between atoms: _547  and  _550
REMARK  208  A    between atoms: _550  and  _551
REMARK  209  A    between atoms: _556  and  _557
REMARK  210  A    between atoms: _559  and  _561
REMARK  211  A    between atoms: _561  and  _562
REMARK  212  A    between atoms: _561  and  _564
REMARK  213  A    between atoms: _564  and  _565
REMARK  214  A    between atoms: _565  and  _566
REMARK  215  A    between atoms: _571  and  _573
REMARK  216  A    between atoms: _573  and  _574
REMARK  217  A    between atoms: _573  and  _576
REMARK  218  A    between atoms: _576  and  _577
REMARK  219  A    between atoms: _583  and  _585
REMARK  220  A    between atoms: _585  and  _586
REMARK  221  A    between atoms: _588  and  _590
REMARK  222  A    between atoms: _590  and  _591
REMARK  223  A    between atoms: _590  and  _593
REMARK  224  A    between atoms: _593  and  _594
REMARK  225  A    between atoms: _604  and  _606
REMARK  226  A    between atoms: _606  and  _607
REMARK  227  A    between atoms: _606  and  _609
REMARK  228  A    between atoms: _609  and  _610
REMARK                            x       y       z     vdW  Elec       q    Type
REMARK                         _______ _______ _______ _____ _____    ______ ____
ROOT
ATOM      1  CA  GLU A   3      15.623  55.503   2.881  0.00  0.00    +0.149 C 
ENDROOT
BRANCH   1   3
ATOM      2  C   PRO A   2      14.101  55.641   0.989  0.00  0.00    +0.241 C 
ATOM      3  N   GLU A   3      14.440  55.091   2.150  0.00  0.00    -0.297 N 
ATOM      4  H   GLU A   3      13.838  54.342   2.547  0.00  0.00    +0.150 HD
ATOM      5  O   PRO A   2      14.798  56.474   0.408  0.00  0.00    -0.273 OA
BRANCH   2  11
ATOM      6  C   ARG A   1      13.495  52.887   0.138  0.00  0.00    +0.241 C 
ATOM      7  N   PRO A   2      12.550  53.741   0.545  0.00  0.00    -0.272 N 
ATOM      8  CD  PRO A   2      11.198  53.447   1.046  0.00  0.00    +0.094 C 
ATOM      9  CG  PRO A   2      10.477  54.742   0.869  0.00  0.00    +0.024 C 
ATOM     10  CB  PRO A   2      11.556  55.793   1.072  0.00  0.00    +0.031 C 
ATOM     11  CA  PRO A   2      12.775  55.176   0.368  0.00  0.00    +0.152 C 
ATOM     12  O   ARG A   1      14.545  53.270  -0.344  0.00  0.00    -0.273 OA
BRANCH   6  13
ATOM     13  CA  ARG A   1      13.282  51.386   0.357  0.00  0.00    +0.145 C 
BRANCH  13  14
ATOM     14  N   ARG A   1      13.468  50.698  -0.922  0.00  0.00    -0.238 NA
ATOM     15  H   ARG A   1      14.285  50.071  -1.068  0.00  0.00    +0.142 HD
ENDBRANCH  13  14
BRANCH  13  16
ATOM     16  CB  ARG A   1      14.327  50.919   1.379  0.00  0.00    +0.030 C 
BRANCH  16  17
ATOM     17  CG  ARG A   1      14.034  49.504   1.903  0.00  0.00    +0.045 C 
BRANCH  17  18
ATOM     18  CD  ARG A   1      15.164  48.967   2.782  0.00  0.00    +0.174 C 
BRANCH  18  19
ATOM     19  NE  ARG A   1      16.370  48.818   1.992  0.00  0.00    -0.265 N 
ATOM     20  CZ  ARG A   1      17.611  48.880   2.448  0.00  0.00    +0.342 C 
ATOM     21  NH2 ARG A   1      17.869  49.102   3.729  0.00  0.00    -0.292 N 
ATOM     22 HH21 ARG A   1      17.087  49.232   4.402  0.00  0.00    +0.255 HD
ATOM     23 HH22 ARG A   1      18.854  49.146   4.061  0.00  0.00    +0.255 HD
ATOM     24  NH1 ARG A   1      18.602  48.765   1.591  0.00  0.00    -0.292 N 
ATOM     25 HH11 ARG A   1      19.586  48.810   1.925  0.00  0.00    +0.255 HD
ATOM     26 HH12 ARG A   1      18.402  48.629   0.580  0.00  0.00    +0.255 HD
ATOM     27  HE  ARG A   1      16.249  48.647   0.973  0.00  0.00    +0.259 HD
ENDBRANCH  18  19
ENDBRANCH  17  18
ENDBRANCH  16  17
ENDBRANCH  13  16
ENDBRANCH   6  13
ENDBRANCH   2  11
ENDBRANCH   1   3
BRANCH   1  28
ATOM     28  C   GLU A   3      16.935  54.943   2.321  0.00  0.00    +0.241 C 
ATOM     29  O   GLU A   3      17.994  55.405   2.705  0.00  0.00    -0.273 OA
ATOM     30  N   SER A   4      16.831  53.998   1.387  0.00  0.00    -0.295 N 
ATOM     31  H   SER A   4      15.879  53.669   1.129  0.00  0.00    +0.150 HD
BRANCH  30  32
ATOM     32  CA  SER A   4      17.979  53.394   0.700  0.00  0.00    +0.178 C 
BRANCH  32  33
ATOM     33  C   SER A   4      17.652  53.207  -0.791  0.00  0.00    +0.243 C 
ATOM     34  N   TRP A   5      17.052  54.232  -1.371  0.00  0.00    -0.298 N 
ATOM     35  H   TRP A   5      16.988  55.124  -0.840  0.00  0.00    +0.150 HD
ATOM     36  O   SER A   4      17.902  52.146  -1.379  0.00  0.00    -0.273 OA
BRANCH  34  37
ATOM     37  CA  TRP A   5      16.484  54.189  -2.688  0.00  0.00    +0.141 C 
BRANCH  37  38
ATOM     38  C   TRP A   5      17.460  53.766  -3.773  0.00  0.00    +0.227 C 
ATOM     39  O   TRP A   5      17.239  52.782  -4.449  0.00  0.00    -0.286 OA
ENDBRANCH  37  38
BRANCH  37  40
ATOM     40  CB  TRP A   5      15.878  55.558  -2.987  0.00  0.00    +0.056 C 
BRANCH  40  41
ATOM     41  CG  TRP A   5      15.066  55.663  -4.202  0.00  0.00    -0.002 A 
ATOM     42  CD2 TRP A   5      13.674  55.323  -4.350  0.00  0.00    +0.013 A 
ATOM     43  CE3 TRP A   5      12.699  54.777  -3.501  0.00  0.00    +0.001 A 
ATOM     44  CZ3 TRP A   5      11.430  54.568  -3.997  0.00  0.00    +0.000 A 
ATOM     45  CH2 TRP A   5      11.089  54.950  -5.302  0.00  0.00    +0.001 A 
ATOM     46  CZ2 TRP A   5      12.007  55.494  -6.143  0.00  0.00    +0.017 A 
ATOM     47  CE2 TRP A   5      13.293  55.702  -5.653  0.00  0.00    +0.056 A 
ATOM     48  NE1 TRP A   5      14.397  56.233  -6.260  0.00  0.00    -0.352 N 
ATOM     49  HE1 TRP A   5      14.432  56.588  -7.237  0.00  0.00    +0.166 HD
ATOM     50  CD1 TRP A   5      15.450  56.226  -5.383  0.00  0.00    +0.068 A 
ENDBRANCH  40  41
ENDBRANCH  37  40
ENDBRANCH  34  37
ENDBRANCH  32  33
BRANCH  32  51
ATOM     51  CB  SER A   4      18.324  52.047   1.340  0.00  0.00    +0.166 C 
BRANCH  51  52
ATOM     52  OG  SER A   4      18.692  52.220   2.699  0.00  0.00    -0.380 OA
ATOM     53  H   SER A   4      19.483  52.813   2.753  0.00  0.00    +0.211 HD
ENDBRANCH  51  52
ENDBRANCH  32  51
ENDBRANCH  30  32
ENDBRANCH   1  28
BRANCH   1  54
ATOM     54  CB  GLU A   3      15.485  55.184   4.380  0.00  0.00    +0.041 C 
BRANCH  54  55
ATOM     55  CG  GLU A   3      15.573  53.711   4.760  0.00  0.00    +0.116 C 
BRANCH  55  56
ATOM     56  CD  GLU A   3      14.351  52.840   4.475  0.00  0.00    +0.365 C 
ATOM     57  OE2 GLU A   3      14.377  51.666   4.898  0.00  0.00    -0.246 OA
ATOM     58  OE1 GLU A   3      13.382  53.282   3.829  0.00  0.00    -0.246 OA
ENDBRANCH  55  56
ENDBRANCH  54  55
ENDBRANCH   1  54
TORSDOF 20
REMARK  Name = ../refined-set-2016/2jg0/2jg0_pocket.pdb
REMARK  228 active torsions:
REMARK  status: ('A' for Active; 'I' for Inactive)
REMARK    1  A    between atoms: _1  and  _3
REMARK    2  A    between atoms: _3  and  _4
REMARK    3  A    between atoms: _3  and  _6
REMARK    4  A    between atoms: _6  and  _7
REMARK    5  A    between atoms: _10  and  _12
REMARK    6  A    between atoms: _12  and  _13
REMARK    7  A    between atoms: _12  and  _15
REMARK    8  A    between atoms: _15  and  _16
REMARK    9  A    between atoms: _16  and  _17
REMARK   10  A    between atoms: _22  and  _24
REMARK   11  A    between atoms: _24  and  _25
REMARK   12  A    between atoms: _24  and  _27
REMARK   13  A    between atoms: _27  and  _28
REMARK   14  A    between atoms: _28  and  _29
REMARK   15  A    between atoms: _29  and  _30
REMARK   16  A    between atoms: _30  and  _31
REMARK   17  A    between atoms: _35  and  _37
REMARK   18  A    between atoms: _37  and  _38
REMARK   19  A    between atoms: _37  and  _40
REMARK   20  A    between atoms: _44  and  _45
REMARK   21  A    between atoms: _50  and  _52
REMARK   22  A    between atoms: _52  and  _53
REMARK   23  A    between atoms: _55  and  _57
REMARK   24  A    between atoms: _57  and  _58
REMARK   25  A    between atoms: _57  and  _60
REMARK   26  A    between atoms: _60  and  _61
REMARK   27  A    between atoms: _61  and  _62
REMARK   28  A    between atoms: _62  and  _63
REMARK   29  A    between atoms: _72  and  _74
REMARK   30  A    between atoms: _74  and  _75
REMARK   31  A    between atoms: _74  and  _77
REMARK   32  A    between atoms: _77  and  _78
REMARK   33  A    between atoms: _84  and  _86
REMARK   34  A    between atoms: _86  and  _87
REMARK   35  A    between atoms: _86  and  _89
REMARK   36  A    between atoms: _89  and  _90
REMARK   37  A    between atoms: _90  and  _91
REMARK   38  A    between atoms: _91  and  _92
REMARK   39  A    between atoms: _101  and  _103
REMARK   40  A    between atoms: _103  and  _104
REMARK   41  A    between atoms: _103  and  _106
REMARK   42  A    between atoms: _106  and  _107
REMARK   43  A    between atoms: _107  and  _108
REMARK   44  A    between atoms: _111  and  _113
REMARK   45  A    between atoms: _113  and  _114
REMARK   46  A    between atoms: _113  and  _116
REMARK   47  A    between atoms: _119  and  _121
REMARK   48  A    between atoms: _121  and  _122
REMARK   49  A    between atoms: _121  and  _124
REMARK   50  A    between atoms: _124  and  _125
REMARK   51  A    between atoms: _130  and  _131
REMARK   52  A    between atoms: _133  and  _135
REMARK   53  A    between atoms: _135  and  _136
REMARK   54  A    between atoms: _135  and  _138
REMARK   55  A    between atoms: _138  and  _139
REMARK   56  A    between atoms: _144  and  _145
REMARK   57  A    between atoms: _147  and  _149
REMARK   58  A    between atoms: _149  and  _150
REMARK   59  A    between atoms: _149  and  _152
REMARK   60  A    between atoms: _152  and  _153
REMARK   61  A    between atoms: _163  and  _165
REMARK   62  A    between atoms: _165  and  _166
REMARK   63  A    between atoms: _165  and  _168
REMARK   64  A    between atoms: _168  and  _169
REMARK   65  A    between atoms: _172  and  _174
REMARK   66  A    between atoms: _174  and  _175
REMARK   67  A    between atoms: _174  and  _177
REMARK   68  A    between atoms: _177  and  _178
REMARK   69  A    between atoms: _180  and  _182
REMARK   70  A    between atoms: _182  and  _183
REMARK   71  A    between atoms: _182  and  _185
REMARK   72  A    between atoms: _185  and  _186
REMARK   73  A    between atoms: _191  and  _193
REMARK   74  A    between atoms: _193  and  _194
REMARK   75  A    between atoms: _196  and  _198
REMARK   76  A    between atoms: _198  and  _199
REMARK   77  A    between atoms: _198  and  _201
REMARK   78  A    between atoms: _201  and  _202
REMARK   79  A    between atoms: _207  and  _208
REMARK   80  A    between atoms: _210  and  _212
REMARK   81  A    between atoms: _212  and  _213
REMARK   82  A    between atoms: _212  and  _215
REMARK   83  A    between atoms: _215  and  _216
REMARK   84  A    between atoms: _221  and  _222
REMARK   85  A    between atoms: _224  and  _226
REMARK   86  A    between atoms: _226  and  _227
REMARK   87  A    between atoms: _226  and  _229
REMARK   88  A    between atoms: _229  and  _230
REMARK   89  A    between atoms: _232  and  _234
REMARK   90  A    between atoms: _234  and  _235
REMARK   91  A    between atoms: _234  and  _237
REMARK   92  A    between atoms: _237  and  _238
REMARK   93  A    between atoms: _238  and  _239
REMARK   94  A    between atoms: _239  and  _240
REMARK   95  A    between atoms: _249  and  _251
REMARK   96  A    between atoms: _251  and  _252
REMARK   97  A    between atoms: _251  and  _254
REMARK   98  A    between atoms: _254  and  _255
REMARK   99  A    between atoms: _257  and  _259
REMARK  100  A    between atoms: _259  and  _260
REMARK  101  A    between atoms: _259  and  _262
REMARK  102  A    between atoms: _262  and  _263
REMARK  103  A    between atoms: _263  and  _264
REMARK  104  A    between atoms: _270  and  _271
REMARK  105  A    between atoms: _276  and  _278
REMARK  106  A    between atoms: _278  and  _279
REMARK  107  A    between atoms: _278  and  _281
REMARK  108  A    between atoms: _281  and  _282
REMARK  109  A    between atoms: _285  and  _287
REMARK  110  A    between atoms: _287  and  _288
REMARK  111  A    between atoms: _287  and  _290
REMARK  112  A    between atoms: _290  and  _291
REMARK  113  A    between atoms: _291  and  _292
REMARK  114  A    between atoms: _292  and  _293
REMARK  115  A    between atoms: _303  and  _304
REMARK  116  A    between atoms: _309  and  _311
REMARK  117  A    between atoms: _311  and  _312
REMARK  118  A    between atoms: _311  and  _314
REMARK  119  A    between atoms: _314  and  _315
REMARK  120  A    between atoms: _315  and  _316
REMARK  121  A    between atoms: _319  and  _321
REMARK  122  A    between atoms: _321  and  _322
REMARK  123  A    between atoms: _321  and  _324
REMARK  124  A    between atoms: _324  and  _325
REMARK  125  A    between atoms: _327  and  _329
REMARK  126  A    between atoms: _329  and  _330
REMARK  127  A    between atoms: _329  and  _332
REMARK  128  A    between atoms: _332  and  _333
REMARK  129  A    between atoms: _343  and  _345
REMARK  130  A    between atoms: _345  and  _346
REMARK  131  A    between atoms: _345  and  _348
REMARK  132  A    between atoms: _348  and  _349
REMARK  133  A    between atoms: _349  and  _350
REMARK  134  A    between atoms: _353  and  _355
REMARK  135  A    between atoms: _355  and  _356
REMARK  136  A    between atoms: _355  and  _358
REMARK  137  A    between atoms: _358  and  _359
REMARK  138  A    between atoms: _362  and  _364
REMARK  139  A    between atoms: _364  and  _365
REMARK  140  A    between atoms: _364  and  _367
REMARK  141  A    between atoms: _367  and  _368
REMARK  142  A    between atoms: _371  and  _373
REMARK  143  A    between atoms: _373  and  _374
REMARK  144  A    between atoms: _373  and  _376
REMARK  145  A    between atoms: _376  and  _377
REMARK  146  A    between atoms: _377  and  _378
REMARK  147  A    between atoms: _378  and  _379
REMARK  148  A    between atoms: _388  and  _390
REMARK  149  A    between atoms: _390  and  _391
REMARK  150  A    between atoms: _394  and  _396
REMARK  151  A    between atoms: _396  and  _397
REMARK  152  A    between atoms: _400  and  _402
REMARK  153  A    between atoms: _402  and  _403
REMARK  154  A    between atoms: _406  and  _408
REMARK  155  A    between atoms: _408  and  _409
REMARK  156  A    between atoms: _408  and  _411
REMARK  157  A    between atoms: _411  and  _412
REMARK  158  A    between atoms: _414  and  _416
REMARK  159  A    between atoms: _416  and  _417
REMARK  160  A    between atoms: _419  and  _421
REMARK  161  A    between atoms: _421  and  _422
REMARK  162  A    between atoms: _421  and  _424
REMARK  163  A    between atoms: _424  and  _425
REMARK  164  A    between atoms: _435  and  _437
REMARK  165  A    between atoms: _437  and  _438
REMARK  166  A    between atoms: _437  and  _440
REMARK  167  A    between atoms: _440  and  _441
REMARK  168  A    between atoms: _444  and  _446
REMARK  169  A    between atoms: _446  and  _447
REMARK  170  A    between atoms: _446  and  _449
REMARK  171  A    between atoms: _449  and  _450
REMARK  172  A    between atoms: _456  and  _458
REMARK  173  A    between atoms: _458  and  _459
REMARK  174  A    between atoms: _458  and  _461
REMARK  175  A    between atoms: _461  and  _462
REMARK  176  A    between atoms: _462  and  _463
REMARK  177  A    between atoms: _468  and  _470
REMARK  178  A    between atoms: _470  and  _471
REMARK  179  A    between atoms: _470  and  _473
REMARK  180  A    between atoms: _473  and  _474
REMARK  181  A    between atoms: _484  and  _486
REMARK  182  A    between atoms: _486  and  _487
REMARK  183  A    between atoms: _486  and  _489
REMARK  184  A    between atoms: _489  and  _490
REMARK  185  A    between atoms: _501  and  _502
REMARK  186  A    between atoms: _507  and  _509
REMARK  187  A    between atoms: _509  and  _510
REMARK  188  A    between atoms: _509  and  _512
REMARK  189  A    between atoms: _512  and  _513
REMARK  190  A    between atoms: _513  and  _514
REMARK  191  A    between atoms: _517  and  _519
REMARK  192  A    between atoms: _519  and  _520
REMARK  193  A    between atoms: _519  and  _522
REMARK  194  A    between atoms: _522  and  _523
REMARK  195  A    between atoms: _523  and  _524
REMARK  196  A    between atoms: _524  and  _525
REMARK  197  A    between atoms: _525  and  _526
REMARK  198  A    between atoms: _530  and  _532
REMARK  199  A    between atoms: _532  and  _533
REMARK  200  A    between atoms: _535  and  _537
REMARK  201  A    between atoms: _537  and  _538
REMARK  202  A    between atoms: _537  and  _540
REMARK  203  A    between atoms: _540  and  _541
REMARK  204  A    between atoms: _541  and  _542
REMARK  205  A    between atoms: _545  and  _547
REMARK  206  A    between atoms: _547  and  _548
REMARK  207  A    between atoms: _547  and  _550
REMARK  208  A    between atoms: _550  and  _551
REMARK  209  A    between atoms: _556  and  _557
REMARK  210  A    between atoms: _559  and  _561
REMARK  211  A    between atoms: _561  and  _562
REMARK  212  A    between atoms: _561  and  _564
REMARK  213  A    between atoms: _564  and  _565
REMARK  214  A    between atoms: _565  and  _566
REMARK  215  A    between atoms: _571  and  _573
REMARK  216  A    between atoms: _573  and  _574
REMARK  217  A    between atoms: _573  and  _576
REMARK  218  A    between atoms: _576  and  _577
REMARK  219  A    between atoms: _583  and  _585
REMARK  220  A    between atoms: _585  and  _586
REMARK  221  A    between atoms: _588  and  _590
REMARK  222  A    between atoms: _590  and  _591
REMARK  223  A    between atoms: _590  and  _593
REMARK  224  A    between atoms: _593  and  _594
REMARK  225  A    between atoms: _604  and  _606
REMARK  226  A    between atoms: _606  and  _607
REMARK  227  A    between atoms: _606  and  _609
REMARK  228  A    between atoms: _609  and  _610
REMARK                            x       y       z     vdW  Elec       q    Type
REMARK                         _______ _______ _______ _____ _____    ______ ____
ROOT
ATOM      1  C   GLU A   1      20.201  50.098  -3.713  0.00  0.00    +0.238 C 
ATOM      2  N   ASP A   2      18.917  50.149  -3.397  0.00  0.00    -0.298 N 
ATOM      3  H   ASP A   2      18.545  50.979  -2.893  0.00  0.00    +0.150 HD
ATOM      4  O   GLU A   1      20.684  49.166  -4.359  0.00  0.00    -0.274 OA
ENDROOT
BRANCH   1   5
ATOM      5  CA  GLU A   1      21.053  51.243  -3.206  0.00  0.00    +0.145 C 
BRANCH   5   6
ATOM      6  N   GLU A   1      20.464  52.553  -3.498  0.00  0.00    -0.238 NA
ATOM      7  H   GLU A   1      20.261  53.218  -2.725  0.00  0.00    +0.142 HD
ENDBRANCH   5   6
BRANCH   5   8
ATOM      8  CB  GLU A   1      21.299  51.086  -1.707  0.00  0.00    +0.038 C 
BRANCH   8   9
ATOM      9  CG  GLU A   1      22.428  51.959  -1.176  0.00  0.00    +0.116 C 
BRANCH   9  10
ATOM     10  CD  GLU A   1      21.988  53.340  -0.739  0.00  0.00    +0.365 C 
ATOM     11  OE2 GLU A   1      22.845  54.123  -0.248  0.00  0.00    -0.246 OA
ATOM     12  OE1 GLU A   1      20.796  53.646  -0.857  0.00  0.00    -0.246 OA
ENDBRANCH   9  10
ENDBRANCH   8   9
ENDBRANCH   5   8
ENDBRANCH   1   5
BRANCH   2  13
ATOM     13  CA  ASP A   2      18.027  49.068  -3.742  0.00  0.00    +0.148 C 
BRANCH  13  14
ATOM     14  C   ASP A   2      17.816  48.963  -5.241  0.00  0.00    +0.227 C 
ATOM     15  O   ASP A   2      17.841  47.892  -5.795  0.00  0.00    -0.286 OA
ENDBRANCH  13  14
BRANCH  13  16
ATOM     16  CB  ASP A   2      16.701  49.222  -2.990  0.00  0.00    +0.142 C 
BRANCH  16  17
ATOM     17  CG  ASP A   2      16.830  48.909  -1.529  0.00  0.00    +0.367 C 
ATOM     18  OD2 ASP A   2      15.812  49.019  -0.834  0.00  0.00    -0.246 OA
ATOM     19  OD1 ASP A   2      17.934  48.538  -1.109  0.00  0.00    -0.246 OA
ENDBRANCH  16  17
ENDBRANCH  13  16
ENDBRANCH   2  13
TORSDOF 9
REMARK  Name = ../refined-set-2016/2jg0/2jg0_pocket.pdb
REMARK  228 active torsions:
REMARK  status: ('A' for Active; 'I' for Inactive)
REMARK    1  A    between atoms: _1  and  _3
REMARK    2  A    between atoms: _3  and  _4
REMARK    3  A    between atoms: _3  and  _6
REMARK    4  A    between atoms: _6  and  _7
REMARK    5  A    between atoms: _10  and  _12
REMARK    6  A    between atoms: _12  and  _13
REMARK    7  A    between atoms: _12  and  _15
REMARK    8  A    between atoms: _15  and  _16
REMARK    9  A    between atoms: _16  and  _17
REMARK   10  A    between atoms: _22  and  _24
REMARK   11  A    between atoms: _24  and  _25
REMARK   12  A    between atoms: _24  and  _27
REMARK   13  A    between atoms: _27  and  _28
REMARK   14  A    between atoms: _28  and  _29
REMARK   15  A    between atoms: _29  and  _30
REMARK   16  A    between atoms: _30  and  _31
REMARK   17  A    between atoms: _35  and  _37
REMARK   18  A    between atoms: _37  and  _38
REMARK   19  A    between atoms: _37  and  _40
REMARK   20  A    between atoms: _44  and  _45
REMARK   21  A    between atoms: _50  and  _52
REMARK   22  A    between atoms: _52  and  _53
REMARK   23  A    between atoms: _55  and  _57
REMARK   24  A    between atoms: _57  and  _58
REMARK   25  A    between atoms: _57  and  _60
REMARK   26  A    between atoms: _60  and  _61
REMARK   27  A    between atoms: _61  and  _62
REMARK   28  A    between atoms: _62  and  _63
REMARK   29  A    between atoms: _72  and  _74
REMARK   30  A    between atoms: _74  and  _75
REMARK   31  A    between atoms: _74  and  _77
REMARK   32  A    between atoms: _77  and  _78
REMARK   33  A    between atoms: _84  and  _86
REMARK   34  A    between atoms: _86  and  _87
REMARK   35  A    between atoms: _86  and  _89
REMARK   36  A    between atoms: _89  and  _90
REMARK   37  A    between atoms: _90  and  _91
REMARK   38  A    between atoms: _91  and  _92
REMARK   39  A    between atoms: _101  and  _103
REMARK   40  A    between atoms: _103  and  _104
REMARK   41  A    between atoms: _103  and  _106
REMARK   42  A    between atoms: _106  and  _107
REMARK   43  A    between atoms: _107  and  _108
REMARK   44  A    between atoms: _111  and  _113
REMARK   45  A    between atoms: _113  and  _114
REMARK   46  A    between atoms: _113  and  _116
REMARK   47  A    between atoms: _119  and  _121
REMARK   48  A    between atoms: _121  and  _122
REMARK   49  A    between atoms: _121  and  _124
REMARK   50  A    between atoms: _124  and  _125
REMARK   51  A    between atoms: _130  and  _131
REMARK   52  A    between atoms: _133  and  _135
REMARK   53  A    between atoms: _135  and  _136
REMARK   54  A    between atoms: _135  and  _138
REMARK   55  A    between atoms: _138  and  _139
REMARK   56  A    between atoms: _144  and  _145
REMARK   57  A    between atoms: _147  and  _149
REMARK   58  A    between atoms: _149  and  _150
REMARK   59  A    between atoms: _149  and  _152
REMARK   60  A    between atoms: _152  and  _153
REMARK   61  A    between atoms: _163  and  _165
REMARK   62  A    between atoms: _165  and  _166
REMARK   63  A    between atoms: _165  and  _168
REMARK   64  A    between atoms: _168  and  _169
REMARK   65  A    between atoms: _172  and  _174
REMARK   66  A    between atoms: _174  and  _175
REMARK   67  A    between atoms: _174  and  _177
REMARK   68  A    between atoms: _177  and  _178
REMARK   69  A    between atoms: _180  and  _182
REMARK   70  A    between atoms: _182  and  _183
REMARK   71  A    between atoms: _182  and  _185
REMARK   72  A    between atoms: _185  and  _186
REMARK   73  A    between atoms: _191  and  _193
REMARK   74  A    between atoms: _193  and  _194
REMARK   75  A    between atoms: _196  and  _198
REMARK   76  A    between atoms: _198  and  _199
REMARK   77  A    between atoms: _198  and  _201
REMARK   78  A    between atoms: _201  and  _202
REMARK   79  A    between atoms: _207  and  _208
REMARK   80  A    between atoms: _210  and  _212
REMARK   81  A    between atoms: _212  and  _213
REMARK   82  A    between atoms: _212  and  _215
REMARK   83  A    between atoms: _215  and  _216
REMARK   84  A    between atoms: _221  and  _222
REMARK   85  A    between atoms: _224  and  _226
REMARK   86  A    between atoms: _226  and  _227
REMARK   87  A    between atoms: _226  and  _229
REMARK   88  A    between atoms: _229  and  _230
REMARK   89  A    between atoms: _232  and  _234
REMARK   90  A    between atoms: _234  and  _235
REMARK   91  A    between atoms: _234  and  _237
REMARK   92  A    between atoms: _237  and  _238
REMARK   93  A    between atoms: _238  and  _239
REMARK   94  A    between atoms: _239  and  _240
REMARK   95  A    between atoms: _249  and  _251
REMARK   96  A    between atoms: _251  and  _252
REMARK   97  A    between atoms: _251  and  _254
REMARK   98  A    between atoms: _254  and  _255
REMARK   99  A    between atoms: _257  and  _259
REMARK  100  A    between atoms: _259  and  _260
REMARK  101  A    between atoms: _259  and  _262
REMARK  102  A    between atoms: _262  and  _263
REMARK  103  A    between atoms: _263  and  _264
REMARK  104  A    between atoms: _270  and  _271
REMARK  105  A    between atoms: _276  and  _278
REMARK  106  A    between atoms: _278  and  _279
REMARK  107  A    between atoms: _278  and  _281
REMARK  108  A    between atoms: _281  and  _282
REMARK  109  A    between atoms: _285  and  _287
REMARK  110  A    between atoms: _287  and  _288
REMARK  111  A    between atoms: _287  and  _290
REMARK  112  A    between atoms: _290  and  _291
REMARK  113  A    between atoms: _291  and  _292
REMARK  114  A    between atoms: _292  and  _293
REMARK  115  A    between atoms: _303  and  _304
REMARK  116  A    between atoms: _309  and  _311
REMARK  117  A    between atoms: _311  and  _312
REMARK  118  A    between atoms: _311  and  _314
REMARK  119  A    between atoms: _314  and  _315
REMARK  120  A    between atoms: _315  and  _316
REMARK  121  A    between atoms: _319  and  _321
REMARK  122  A    between atoms: _321  and  _322
REMARK  123  A    between atoms: _321  and  _324
REMARK  124  A    between atoms: _324  and  _325
REMARK  125  A    between atoms: _327  and  _329
REMARK  126  A    between atoms: _329  and  _330
REMARK  127  A    between atoms: _329  and  _332
REMARK  128  A    between atoms: _332  and  _333
REMARK  129  A    between atoms: _343  and  _345
REMARK  130  A    between atoms: _345  and  _346
REMARK  131  A    between atoms: _345  and  _348
REMARK  132  A    between atoms: _348  and  _349
REMARK  133  A    between atoms: _349  and  _350
REMARK  134  A    between atoms: _353  and  _355
REMARK  135  A    between atoms: _355  and  _356
REMARK  136  A    between atoms: _355  and  _358
REMARK  137  A    between atoms: _358  and  _359
REMARK  138  A    between atoms: _362  and  _364
REMARK  139  A    between atoms: _364  and  _365
REMARK  140  A    between atoms: _364  and  _367
REMARK  141  A    between atoms: _367  and  _368
REMARK  142  A    between atoms: _371  and  _373
REMARK  143  A    between atoms: _373  and  _374
REMARK  144  A    between atoms: _373  and  _376
REMARK  145  A    between atoms: _376  and  _377
REMARK  146  A    between atoms: _377  and  _378
REMARK  147  A    between atoms: _378  and  _379
REMARK  148  A    between atoms: _388  and  _390
REMARK  149  A    between atoms: _390  and  _391
REMARK  150  A    between atoms: _394  and  _396
REMARK  151  A    between atoms: _396  and  _397
REMARK  152  A    between atoms: _400  and  _402
REMARK  153  A    between atoms: _402  and  _403
REMARK  154  A    between atoms: _406  and  _408
REMARK  155  A    between atoms: _408  and  _409
REMARK  156  A    between atoms: _408  and  _411
REMARK  157  A    between atoms: _411  and  _412
REMARK  158  A    between atoms: _414  and  _416
REMARK  159  A    between atoms: _416  and  _417
REMARK  160  A    between atoms: _419  and  _421
REMARK  161  A    between atoms: _421  and  _422
REMARK  162  A    between atoms: _421  and  _424
REMARK  163  A    between atoms: _424  and  _425
REMARK  164  A    between atoms: _435  and  _437
REMARK  165  A    between atoms: _437  and  _438
REMARK  166  A    between atoms: _437  and  _440
REMARK  167  A    between atoms: _440  and  _441
REMARK  168  A    between atoms: _444  and  _446
REMARK  169  A    between atoms: _446  and  _447
REMARK  170  A    between atoms: _446  and  _449
REMARK  171  A    between atoms: _449  and  _450
REMARK  172  A    between atoms: _456  and  _458
REMARK  173  A    between atoms: _458  and  _459
REMARK  174  A    between atoms: _458  and  _461
REMARK  175  A    between atoms: _461  and  _462
REMARK  176  A    between atoms: _462  and  _463
REMARK  177  A    between atoms: _468  and  _470
REMARK  178  A    between atoms: _470  and  _471
REMARK  179  A    between atoms: _470  and  _473
REMARK  180  A    between atoms: _473  and  _474
REMARK  181  A    between atoms: _484  and  _486
REMARK  182  A    between atoms: _486  and  _487
REMARK  183  A    between atoms: _486  and  _489
REMARK  184  A    between atoms: _489  and  _490
REMARK  185  A    between atoms: _501  and  _502
REMARK  186  A    between atoms: _507  and  _509
REMARK  187  A    between atoms: _509  and  _510
REMARK  188  A    between atoms: _509  and  _512
REMARK  189  A    between atoms: _512  and  _513
REMARK  190  A    between atoms: _513  and  _514
REMARK  191  A    between atoms: _517  and  _519
REMARK  192  A    between atoms: _519  and  _520
REMARK  193  A    between atoms: _519  and  _522
REMARK  194  A    between atoms: _522  and  _523
REMARK  195  A    between atoms: _523  and  _524
REMARK  196  A    between atoms: _524  and  _525
REMARK  197  A    between atoms: _525  and  _526
REMARK  198  A    between atoms: _530  and  _532
REMARK  199  A    between atoms: _532  and  _533
REMARK  200  A    between atoms: _535  and  _537
REMARK  201  A    between atoms: _537  and  _538
REMARK  202  A    between atoms: _537  and  _540
REMARK  203  A    between atoms: _540  and  _541
REMARK  204  A    between atoms: _541  and  _542
REMARK  205  A    between atoms: _545  and  _547
REMARK  206  A    between atoms: _547  and  _548
REMARK  207  A    between atoms: _547  and  _550
REMARK  208  A    between atoms: _550  and  _551
REMARK  209  A    between atoms: _556  and  _557
REMARK  210  A    between atoms: _559  and  _561
REMARK  211  A    between atoms: _561  and  _562
REMARK  212  A    between atoms: _561  and  _564
REMARK  213  A    between atoms: _564  and  _565
REMARK  214  A    between atoms: _565  and  _566
REMARK  215  A    between atoms: _571  and  _573
REMARK  216  A    between atoms: _573  and  _574
REMARK  217  A    between atoms: _573  and  _576
REMARK  218  A    between atoms: _576  and  _577
REMARK  219  A    between atoms: _583  and  _585
REMARK  220  A    between atoms: _585  and  _586
REMARK  221  A    between atoms: _588  and  _590
REMARK  222  A    between atoms: _590  and  _591
REMARK  223  A    between atoms: _590  and  _593
REMARK  224  A    between atoms: _593  and  _594
REMARK  225  A    between atoms: _604  and  _606
REMARK  226  A    between atoms: _606  and  _607
REMARK  227  A    between atoms: _606  and  _609
REMARK  228  A    between atoms: _609  and  _610
REMARK                            x       y       z     vdW  Elec       q    Type
REMARK                         _______ _______ _______ _____ _____    ______ ____
ROOT
ATOM      1  CA  ARG A   2      12.823  45.137   2.892  0.00  0.00    +0.137 C 
ENDROOT
BRANCH   1   4
ATOM      2  C   LEU A   1      14.921  44.246   2.112  0.00  0.00    +0.238 C 
ATOM      3  O   LEU A   1      15.435  44.369   3.238  0.00  0.00    -0.274 OA
ATOM      4  N   ARG A   2      13.672  44.613   1.835  0.00  0.00    -0.298 N 
ATOM      5  H   ARG A   2      13.305  44.525   0.866  0.00  0.00    +0.150 HD
BRANCH   2   6
ATOM      6  CA  LEU A   1      15.690  43.632   0.968  0.00  0.00    +0.145 C 
BRANCH   6   7
ATOM      7  N   LEU A   1      14.894  42.571   0.329  0.00  0.00    -0.238 NA
ATOM      8  H   LEU A   1      14.592  42.688  -0.659  0.00  0.00    +0.142 HD
ENDBRANCH   6   7
BRANCH   6   9
ATOM      9  CB  LEU A   1      16.071  44.728  -0.027  0.00  0.00    +0.026 C 
BRANCH   9  10
ATOM     10  CG  LEU A   1      17.153  44.338  -1.045  0.00  0.00    +0.002 C 
ATOM     11  CD2 LEU A   1      18.554  44.233  -0.458  0.00  0.00    +0.000 C 
ATOM     12  CD1 LEU A   1      17.131  45.313  -2.189  0.00  0.00    +0.000 C 
ENDBRANCH   9  10
ENDBRANCH   6   9
ENDBRANCH   2   6
ENDBRANCH   1   4
BRANCH   1  13
ATOM     13  C   ARG A   2      12.611  44.173   4.060  0.00  0.00    +0.227 C 
ATOM     14  O   ARG A   2      12.585  44.567   5.251  0.00  0.00    -0.286 OA
ENDBRANCH   1  13
BRANCH   1  15
ATOM     15  CB  ARG A   2      11.461  45.527   2.342  0.00  0.00    +0.031 C 
BRANCH  15  16
ATOM     16  CG  ARG A   2      11.479  46.733   1.446  0.00  0.00    +0.045 C 
BRANCH  16  17
ATOM     17  CD  ARG A   2      10.144  46.906   0.698  0.00  0.00    +0.174 C 
BRANCH  17  18
ATOM     18  NE  ARG A   2       9.972  48.284   0.256  0.00  0.00    -0.265 N 
ATOM     19  CZ  ARG A   2       9.500  49.279   1.007  0.00  0.00    +0.342 C 
ATOM     20  NH2 ARG A   2       9.092  49.078   2.254  0.00  0.00    -0.292 N 
ATOM     21 HH21 ARG A   2       8.728  49.873   2.817  0.00  0.00    +0.255 HD
ATOM     22 HH22 ARG A   2       9.136  48.125   2.668  0.00  0.00    +0.255 HD
ATOM     23  NH1 ARG A   2       9.433  50.512   0.522  0.00  0.00    -0.292 N 
ATOM     24 HH11 ARG A   2       9.064  51.284   1.113  0.00  0.00    +0.255 HD
ATOM     25 HH12 ARG A   2       9.750  50.707  -0.449  0.00  0.00    +0.255 HD
ATOM     26  HE  ARG A   2      10.239  48.509  -0.724  0.00  0.00    +0.259 HD
ENDBRANCH  17  18
ENDBRANCH  16  17
ENDBRANCH  15  16
ENDBRANCH   1  15
TORSDOF 10
REMARK  Name = ../refined-set-2016/2jg0/2jg0_pocket.pdb
REMARK  228 active torsions:
REMARK  status: ('A' for Active; 'I' for Inactive)
REMARK    1  A    between atoms: _1  and  _3
REMARK    2  A    between atoms: _3  and  _4
REMARK    3  A    between atoms: _3  and  _6
REMARK    4  A    between atoms: _6  and  _7
REMARK    5  A    between atoms: _10  and  _12
REMARK    6  A    between atoms: _12  and  _13
REMARK    7  A    between atoms: _12  and  _15
REMARK    8  A    between atoms: _15  and  _16
REMARK    9  A    between atoms: _16  and  _17
REMARK   10  A    between atoms: _22  and  _24
REMARK   11  A    between atoms: _24  and  _25
REMARK   12  A    between atoms: _24  and  _27
REMARK   13  A    between atoms: _27  and  _28
REMARK   14  A    between atoms: _28  and  _29
REMARK   15  A    between atoms: _29  and  _30
REMARK   16  A    between atoms: _30  and  _31
REMARK   17  A    between atoms: _35  and  _37
REMARK   18  A    between atoms: _37  and  _38
REMARK   19  A    between atoms: _37  and  _40
REMARK   20  A    between atoms: _44  and  _45
REMARK   21  A    between atoms: _50  and  _52
REMARK   22  A    between atoms: _52  and  _53
REMARK   23  A    between atoms: _55  and  _57
REMARK   24  A    between atoms: _57  and  _58
REMARK   25  A    between atoms: _57  and  _60
REMARK   26  A    between atoms: _60  and  _61
REMARK   27  A    between atoms: _61  and  _62
REMARK   28  A    between atoms: _62  and  _63
REMARK   29  A    between atoms: _72  and  _74
REMARK   30  A    between atoms: _74  and  _75
REMARK   31  A    between atoms: _74  and  _77
REMARK   32  A    between atoms: _77  and  _78
REMARK   33  A    between atoms: _84  and  _86
REMARK   34  A    between atoms: _86  and  _87
REMARK   35  A    between atoms: _86  and  _89
REMARK   36  A    between atoms: _89  and  _90
REMARK   37  A    between atoms: _90  and  _91
REMARK   38  A    between atoms: _91  and  _92
REMARK   39  A    between atoms: _101  and  _103
REMARK   40  A    between atoms: _103  and  _104
REMARK   41  A    between atoms: _103  and  _106
REMARK   42  A    between atoms: _106  and  _107
REMARK   43  A    between atoms: _107  and  _108
REMARK   44  A    between atoms: _111  and  _113
REMARK   45  A    between atoms: _113  and  _114
REMARK   46  A    between atoms: _113  and  _116
REMARK   47  A    between atoms: _119  and  _121
REMARK   48  A    between atoms: _121  and  _122
REMARK   49  A    between atoms: _121  and  _124
REMARK   50  A    between atoms: _124  and  _125
REMARK   51  A    between atoms: _130  and  _131
REMARK   52  A    between atoms: _133  and  _135
REMARK   53  A    between atoms: _135  and  _136
REMARK   54  A    between atoms: _135  and  _138
REMARK   55  A    between atoms: _138  and  _139
REMARK   56  A    between atoms: _144  and  _145
REMARK   57  A    between atoms: _147  and  _149
REMARK   58  A    between atoms: _149  and  _150
REMARK   59  A    between atoms: _149  and  _152
REMARK   60  A    between atoms: _152  and  _153
REMARK   61  A    between atoms: _163  and  _165
REMARK   62  A    between atoms: _165  and  _166
REMARK   63  A    between atoms: _165  and  _168
REMARK   64  A    between atoms: _168  and  _169
REMARK   65  A    between atoms: _172  and  _174
REMARK   66  A    between atoms: _174  and  _175
REMARK   67  A    between atoms: _174  and  _177
REMARK   68  A    between atoms: _177  and  _178
REMARK   69  A    between atoms: _180  and  _182
REMARK   70  A    between atoms: _182  and  _183
REMARK   71  A    between atoms: _182  and  _185
REMARK   72  A    between atoms: _185  and  _186
REMARK   73  A    between atoms: _191  and  _193
REMARK   74  A    between atoms: _193  and  _194
REMARK   75  A    between atoms: _196  and  _198
REMARK   76  A    between atoms: _198  and  _199
REMARK   77  A    between atoms: _198  and  _201
REMARK   78  A    between atoms: _201  and  _202
REMARK   79  A    between atoms: _207  and  _208
REMARK   80  A    between atoms: _210  and  _212
REMARK   81  A    between atoms: _212  and  _213
REMARK   82  A    between atoms: _212  and  _215
REMARK   83  A    between atoms: _215  and  _216
REMARK   84  A    between atoms: _221  and  _222
REMARK   85  A    between atoms: _224  and  _226
REMARK   86  A    between atoms: _226  and  _227
REMARK   87  A    between atoms: _226  and  _229
REMARK   88  A    between atoms: _229  and  _230
REMARK   89  A    between atoms: _232  and  _234
REMARK   90  A    between atoms: _234  and  _235
REMARK   91  A    between atoms: _234  and  _237
REMARK   92  A    between atoms: _237  and  _238
REMARK   93  A    between atoms: _238  and  _239
REMARK   94  A    between atoms: _239  and  _240
REMARK   95  A    between atoms: _249  and  _251
REMARK   96  A    between atoms: _251  and  _252
REMARK   97  A    between atoms: _251  and  _254
REMARK   98  A    between atoms: _254  and  _255
REMARK   99  A    between atoms: _257  and  _259
REMARK  100  A    between atoms: _259  and  _260
REMARK  101  A    between atoms: _259  and  _262
REMARK  102  A    between atoms: _262  and  _263
REMARK  103  A    between atoms: _263  and  _264
REMARK  104  A    between atoms: _270  and  _271
REMARK  105  A    between atoms: _276  and  _278
REMARK  106  A    between atoms: _278  and  _279
REMARK  107  A    between atoms: _278  and  _281
REMARK  108  A    between atoms: _281  and  _282
REMARK  109  A    between atoms: _285  and  _287
REMARK  110  A    between atoms: _287  and  _288
REMARK  111  A    between atoms: _287  and  _290
REMARK  112  A    between atoms: _290  and  _291
REMARK  113  A    between atoms: _291  and  _292
REMARK  114  A    between atoms: _292  and  _293
REMARK  115  A    between atoms: _303  and  _304
REMARK  116  A    between atoms: _309  and  _311
REMARK  117  A    between atoms: _311  and  _312
REMARK  118  A    between atoms: _311  and  _314
REMARK  119  A    between atoms: _314  and  _315
REMARK  120  A    between atoms: _315  and  _316
REMARK  121  A    between atoms: _319  and  _321
REMARK  122  A    between atoms: _321  and  _322
REMARK  123  A    between atoms: _321  and  _324
REMARK  124  A    between atoms: _324  and  _325
REMARK  125  A    between atoms: _327  and  _329
REMARK  126  A    between atoms: _329  and  _330
REMARK  127  A    between atoms: _329  and  _332
REMARK  128  A    between atoms: _332  and  _333
REMARK  129  A    between atoms: _343  and  _345
REMARK  130  A    between atoms: _345  and  _346
REMARK  131  A    between atoms: _345  and  _348
REMARK  132  A    between atoms: _348  and  _349
REMARK  133  A    between atoms: _349  and  _350
REMARK  134  A    between atoms: _353  and  _355
REMARK  135  A    between atoms: _355  and  _356
REMARK  136  A    between atoms: _355  and  _358
REMARK  137  A    between atoms: _358  and  _359
REMARK  138  A    between atoms: _362  and  _364
REMARK  139  A    between atoms: _364  and  _365
REMARK  140  A    between atoms: _364  and  _367
REMARK  141  A    between atoms: _367  and  _368
REMARK  142  A    between atoms: _371  and  _373
REMARK  143  A    between atoms: _373  and  _374
REMARK  144  A    between atoms: _373  and  _376
REMARK  145  A    between atoms: _376  and  _377
REMARK  146  A    between atoms: _377  and  _378
REMARK  147  A    between atoms: _378  and  _379
REMARK  148  A    between atoms: _388  and  _390
REMARK  149  A    between atoms: _390  and  _391
REMARK  150  A    between atoms: _394  and  _396
REMARK  151  A    between atoms: _396  and  _397
REMARK  152  A    between atoms: _400  and  _402
REMARK  153  A    between atoms: _402  and  _403
REMARK  154  A    between atoms: _406  and  _408
REMARK  155  A    between atoms: _408  and  _409
REMARK  156  A    between atoms: _408  and  _411
REMARK  157  A    between atoms: _411  and  _412
REMARK  158  A    between atoms: _414  and  _416
REMARK  159  A    between atoms: _416  and  _417
REMARK  160  A    between atoms: _419  and  _421
REMARK  161  A    between atoms: _421  and  _422
REMARK  162  A    between atoms: _421  and  _424
REMARK  163  A    between atoms: _424  and  _425
REMARK  164  A    between atoms: _435  and  _437
REMARK  165  A    between atoms: _437  and  _438
REMARK  166  A    between atoms: _437  and  _440
REMARK  167  A    between atoms: _440  and  _441
REMARK  168  A    between atoms: _444  and  _446
REMARK  169  A    between atoms: _446  and  _447
REMARK  170  A    between atoms: _446  and  _449
REMARK  171  A    between atoms: _449  and  _450
REMARK  172  A    between atoms: _456  and  _458
REMARK  173  A    between atoms: _458  and  _459
REMARK  174  A    between atoms: _458  and  _461
REMARK  175  A    between atoms: _461  and  _462
REMARK  176  A    between atoms: _462  and  _463
REMARK  177  A    between atoms: _468  and  _470
REMARK  178  A    between atoms: _470  and  _471
REMARK  179  A    between atoms: _470  and  _473
REMARK  180  A    between atoms: _473  and  _474
REMARK  181  A    between atoms: _484  and  _486
REMARK  182  A    between atoms: _486  and  _487
REMARK  183  A    between atoms: _486  and  _489
REMARK  184  A    between atoms: _489  and  _490
REMARK  185  A    between atoms: _501  and  _502
REMARK  186  A    between atoms: _507  and  _509
REMARK  187  A    between atoms: _509  and  _510
REMARK  188  A    between atoms: _509  and  _512
REMARK  189  A    between atoms: _512  and  _513
REMARK  190  A    between atoms: _513  and  _514
REMARK  191  A    between atoms: _517  and  _519
REMARK  192  A    between atoms: _519  and  _520
REMARK  193  A    between atoms: _519  and  _522
REMARK  194  A    between atoms: _522  and  _523
REMARK  195  A    between atoms: _523  and  _524
REMARK  196  A    between atoms: _524  and  _525
REMARK  197  A    between atoms: _525  and  _526
REMARK  198  A    between atoms: _530  and  _532
REMARK  199  A    between atoms: _532  and  _533
REMARK  200  A    between atoms: _535  and  _537
REMARK  201  A    between atoms: _537  and  _538
REMARK  202  A    between atoms: _537  and  _540
REMARK  203  A    between atoms: _540  and  _541
REMARK  204  A    between atoms: _541  and  _542
REMARK  205  A    between atoms: _545  and  _547
REMARK  206  A    between atoms: _547  and  _548
REMARK  207  A    between atoms: _547  and  _550
REMARK  208  A    between atoms: _550  and  _551
REMARK  209  A    between atoms: _556  and  _557
REMARK  210  A    between atoms: _559  and  _561
REMARK  211  A    between atoms: _561  and  _562
REMARK  212  A    between atoms: _561  and  _564
REMARK  213  A    between atoms: _564  and  _565
REMARK  214  A    between atoms: _565  and  _566
REMARK  215  A    between atoms: _571  and  _573
REMARK  216  A    between atoms: _573  and  _574
REMARK  217  A    between atoms: _573  and  _576
REMARK  218  A    between atoms: _576  and  _577
REMARK  219  A    between atoms: _583  and  _585
REMARK  220  A    between atoms: _585  and  _586
REMARK  221  A    between atoms: _588  and  _590
REMARK  222  A    between atoms: _590  and  _591
REMARK  223  A    between atoms: _590  and  _593
REMARK  224  A    between atoms: _593  and  _594
REMARK  225  A    between atoms: _604  and  _606
REMARK  226  A    between atoms: _606  and  _607
REMARK  227  A    between atoms: _606  and  _609
REMARK  228  A    between atoms: _609  and  _610
REMARK                            x       y       z     vdW  Elec       q    Type
REMARK                         _______ _______ _______ _____ _____    ______ ____
ROOT
ATOM      1  CA  TRP A   6      19.798  41.970  10.144  0.00  0.00    +0.153 C 
ENDROOT
BRANCH   1   4
ATOM      2  C   GLY A   5      18.354  43.415  11.472  0.00  0.00    +0.243 C 
ATOM      3  O   GLY A   5      19.265  44.181  11.774  0.00  0.00    -0.273 OA
ATOM      4  N   TRP A   6      18.518  42.356  10.674  0.00  0.00    -0.297 N 
ATOM      5  H   TRP A   6      17.684  41.786  10.425  0.00  0.00    +0.150 HD
BRANCH   2   6
ATOM      6  CA  GLY A   5      16.942  43.617  12.021  0.00  0.00    +0.176 C 
BRANCH   6   9
ATOM      7  C   SER A   4      15.605  41.669  11.425  0.00  0.00    +0.243 C 
ATOM      8  O   SER A   4      16.103  40.987  12.342  0.00  0.00    -0.273 OA
ATOM      9  N   GLY A   5      15.926  42.949  11.215  0.00  0.00    -0.295 N 
ATOM     10  H   GLY A   5      15.442  43.479  10.462  0.00  0.00    +0.150 HD
BRANCH   7  11
ATOM     11  CA  SER A   4      14.632  41.038  10.433  0.00  0.00    +0.178 C 
BRANCH  11  14
ATOM     12  C   ALA A   3      13.012  42.816  10.064  0.00  0.00    +0.241 C 
ATOM     13  O   ALA A   3      12.672  42.778  11.249  0.00  0.00    -0.273 OA
ATOM     14  N   SER A   4      13.990  42.040   9.587  0.00  0.00    -0.295 N 
ATOM     15  H   SER A   4      14.298  42.151   8.600  0.00  0.00    +0.150 HD
BRANCH  12  16
ATOM     16  CA  ALA A   3      12.366  43.812   9.080  0.00  0.00    +0.149 C 
ATOM     17  CB  ALA A   3      11.128  43.192   8.449  0.00  0.00    +0.031 C 
BRANCH  16  20
ATOM     18  C   ALA A   2      14.449  44.858   8.361  0.00  0.00    +0.241 C 
ATOM     19  O   ALA A   2      14.741  45.143   9.514  0.00  0.00    -0.273 OA
ATOM     20  N   ALA A   3      13.325  44.213   8.053  0.00  0.00    -0.297 N 
ATOM     21  H   ALA A   3      13.125  43.989   7.057  0.00  0.00    +0.150 HD
BRANCH  18  22
ATOM     22  CA  ALA A   2      15.382  45.208   7.209  0.00  0.00    +0.149 C 
ATOM     23  CB  ALA A   2      14.968  46.513   6.512  0.00  0.00    +0.031 C 
BRANCH  22  26
ATOM     24  C   ALA A   1      15.929  42.910   6.715  0.00  0.00    +0.238 C 
ATOM     25  O   ALA A   1      16.364  42.766   7.855  0.00  0.00    -0.274 OA
ATOM     26  N   ALA A   2      15.464  44.095   6.283  0.00  0.00    -0.297 N 
ATOM     27  H   ALA A   2      15.166  44.213   5.294  0.00  0.00    +0.150 HD
BRANCH  24  28
ATOM     28  CA  ALA A   1      15.864  41.682   5.770  0.00  0.00    +0.145 C 
ATOM     29  CB  ALA A   1      17.115  41.617   4.885  0.00  0.00    +0.028 C 
BRANCH  28  30
ATOM     30  N   ALA A   1      14.622  41.723   4.982  0.00  0.00    -0.238 NA
ATOM     31  H   ALA A   1      14.662  41.837   3.949  0.00  0.00    +0.142 HD
ENDBRANCH  28  30
ENDBRANCH  24  28
ENDBRANCH  22  26
ENDBRANCH  18  22
ENDBRANCH  16  20
ENDBRANCH  12  16
ENDBRANCH  11  14
BRANCH  11  32
ATOM     32  CB  SER A   4      15.420  40.017   9.609  0.00  0.00    +0.166 C 
BRANCH  32  33
ATOM     33  OG  SER A   4      16.653  40.579   9.217  0.00  0.00    -0.380 OA
ATOM     34  H   SER A   4      16.487  41.387   8.670  0.00  0.00    +0.211 HD
ENDBRANCH  32  33
ENDBRANCH  11  32
ENDBRANCH   7  11
ENDBRANCH   6   9
ENDBRANCH   2   6
ENDBRANCH   1   4
BRANCH   1  35
ATOM     35  C   TRP A   6      19.930  42.426   8.680  0.00  0.00    +0.241 C 
ATOM     36  N   ASP A   7      19.806  43.718   8.456  0.00  0.00    -0.297 N 
ATOM     37  H   ASP A   7      19.490  44.344   9.224  0.00  0.00    +0.150 HD
ATOM     38  O   TRP A   6      20.156  41.628   7.781  0.00  0.00    -0.273 OA
BRANCH  36  39
ATOM     39  CA  ASP A   7      20.106  44.285   7.141  0.00  0.00    +0.160 C 
BRANCH  39  40
ATOM     40  C   ASP A   7      21.566  44.702   7.150  0.00  0.00    +0.241 C 
ATOM     41  O   ASP A   7      21.866  45.686   7.774  0.00  0.00    -0.273 OA
ATOM     42  N   PHE A   8      22.490  43.972   6.513  0.00  0.00    -0.298 N 
ATOM     43  H   PHE A   8      23.473  44.304   6.578  0.00  0.00    +0.150 HD
BRANCH  42  44
ATOM     44  CA  PHE A   8      22.257  42.748   5.731  0.00  0.00    +0.141 C 
BRANCH  44  45
ATOM     45  C   PHE A   8      23.253  41.702   6.189  0.00  0.00    +0.227 C 
ATOM     46  O   PHE A   8      24.140  41.982   7.033  0.00  0.00    -0.286 OA
ENDBRANCH  44  45
BRANCH  44  47
ATOM     47  CB  PHE A   8      22.378  43.045   4.231  0.00  0.00    +0.054 C 
BRANCH  47  48
ATOM     48  CG  PHE A   8      21.321  43.968   3.756  0.00  0.00    -0.020 A 
ATOM     49  CD2 PHE A   8      20.043  43.520   3.593  0.00  0.00    -0.004 A 
ATOM     50  CE2 PHE A   8      19.046  44.355   3.203  0.00  0.00    -0.000 A 
ATOM     51  CZ  PHE A   8      19.302  45.694   3.020  0.00  0.00    -0.000 A 
ATOM     52  CE1 PHE A   8      20.566  46.174   3.207  0.00  0.00    -0.000 A 
ATOM     53  CD1 PHE A   8      21.589  45.313   3.577  0.00  0.00    -0.004 A 
ENDBRANCH  47  48
ENDBRANCH  44  47
ENDBRANCH  42  44
ENDBRANCH  39  40
BRANCH  39  54
ATOM     54  CB  ASP A   7      19.217  45.502   6.792  0.00  0.00    +0.143 C 
BRANCH  54  55
ATOM     55  CG  ASP A   7      19.039  46.464   7.931  0.00  0.00    +0.367 C 
ATOM     56  OD2 ASP A   7      18.576  46.033   9.017  0.00  0.00    -0.246 OA
ATOM     57  OD1 ASP A   7      19.328  47.675   7.734  0.00  0.00    -0.246 OA
ENDBRANCH  54  55
ENDBRANCH  39  54
ENDBRANCH  36  39
ENDBRANCH   1  35
BRANCH   1  58
ATOM     58  CB  TRP A   6      19.986  40.440  10.236  0.00  0.00    +0.057 C 
BRANCH  58  59
ATOM     59  CG  TRP A   6      20.159  39.836  11.575  0.00  0.00    -0.002 A 
ATOM     60  CD1 TRP A   6      19.427  40.072  12.685  0.00  0.00    +0.068 A 
ATOM     61  NE1 TRP A   6      19.847  39.263  13.718  0.00  0.00    -0.352 N 
ATOM     62  HE1 TRP A   6      19.449  39.251  14.679  0.00  0.00    +0.166 HD
ATOM     63  CE2 TRP A   6      20.873  38.478  13.271  0.00  0.00    +0.056 A 
ATOM     64  CZ2 TRP A   6      21.625  37.508  13.927  0.00  0.00    +0.017 A 
ATOM     65  CH2 TRP A   6      22.594  36.870  13.189  0.00  0.00    +0.001 A 
ATOM     66  CZ3 TRP A   6      22.823  37.181  11.851  0.00  0.00    +0.000 A 
ATOM     67  CE3 TRP A   6      22.066  38.111  11.209  0.00  0.00    +0.001 A 
ATOM     68  CD2 TRP A   6      21.078  38.792  11.917  0.00  0.00    +0.013 A 
ENDBRANCH  58  59
ENDBRANCH   1  58
TORSDOF 24
REMARK  Name = ../refined-set-2016/2jg0/2jg0_pocket.pdb
REMARK  228 active torsions:
REMARK  status: ('A' for Active; 'I' for Inactive)
REMARK    1  A    between atoms: _1  and  _3
REMARK    2  A    between atoms: _3  and  _4
REMARK    3  A    between atoms: _3  and  _6
REMARK    4  A    between atoms: _6  and  _7
REMARK    5  A    between atoms: _10  and  _12
REMARK    6  A    between atoms: _12  and  _13
REMARK    7  A    between atoms: _12  and  _15
REMARK    8  A    between atoms: _15  and  _16
REMARK    9  A    between atoms: _16  and  _17
REMARK   10  A    between atoms: _22  and  _24
REMARK   11  A    between atoms: _24  and  _25
REMARK   12  A    between atoms: _24  and  _27
REMARK   13  A    between atoms: _27  and  _28
REMARK   14  A    between atoms: _28  and  _29
REMARK   15  A    between atoms: _29  and  _30
REMARK   16  A    between atoms: _30  and  _31
REMARK   17  A    between atoms: _35  and  _37
REMARK   18  A    between atoms: _37  and  _38
REMARK   19  A    between atoms: _37  and  _40
REMARK   20  A    between atoms: _44  and  _45
REMARK   21  A    between atoms: _50  and  _52
REMARK   22  A    between atoms: _52  and  _53
REMARK   23  A    between atoms: _55  and  _57
REMARK   24  A    between atoms: _57  and  _58
REMARK   25  A    between atoms: _57  and  _60
REMARK   26  A    between atoms: _60  and  _61
REMARK   27  A    between atoms: _61  and  _62
REMARK   28  A    between atoms: _62  and  _63
REMARK   29  A    between atoms: _72  and  _74
REMARK   30  A    between atoms: _74  and  _75
REMARK   31  A    between atoms: _74  and  _77
REMARK   32  A    between atoms: _77  and  _78
REMARK   33  A    between atoms: _84  and  _86
REMARK   34  A    between atoms: _86  and  _87
REMARK   35  A    between atoms: _86  and  _89
REMARK   36  A    between atoms: _89  and  _90
REMARK   37  A    between atoms: _90  and  _91
REMARK   38  A    between atoms: _91  and  _92
REMARK   39  A    between atoms: _101  and  _103
REMARK   40  A    between atoms: _103  and  _104
REMARK   41  A    between atoms: _103  and  _106
REMARK   42  A    between atoms: _106  and  _107
REMARK   43  A    between atoms: _107  and  _108
REMARK   44  A    between atoms: _111  and  _113
REMARK   45  A    between atoms: _113  and  _114
REMARK   46  A    between atoms: _113  and  _116
REMARK   47  A    between atoms: _119  and  _121
REMARK   48  A    between atoms: _121  and  _122
REMARK   49  A    between atoms: _121  and  _124
REMARK   50  A    between atoms: _124  and  _125
REMARK   51  A    between atoms: _130  and  _131
REMARK   52  A    between atoms: _133  and  _135
REMARK   53  A    between atoms: _135  and  _136
REMARK   54  A    between atoms: _135  and  _138
REMARK   55  A    between atoms: _138  and  _139
REMARK   56  A    between atoms: _144  and  _145
REMARK   57  A    between atoms: _147  and  _149
REMARK   58  A    between atoms: _149  and  _150
REMARK   59  A    between atoms: _149  and  _152
REMARK   60  A    between atoms: _152  and  _153
REMARK   61  A    between atoms: _163  and  _165
REMARK   62  A    between atoms: _165  and  _166
REMARK   63  A    between atoms: _165  and  _168
REMARK   64  A    between atoms: _168  and  _169
REMARK   65  A    between atoms: _172  and  _174
REMARK   66  A    between atoms: _174  and  _175
REMARK   67  A    between atoms: _174  and  _177
REMARK   68  A    between atoms: _177  and  _178
REMARK   69  A    between atoms: _180  and  _182
REMARK   70  A    between atoms: _182  and  _183
REMARK   71  A    between atoms: _182  and  _185
REMARK   72  A    between atoms: _185  and  _186
REMARK   73  A    between atoms: _191  and  _193
REMARK   74  A    between atoms: _193  and  _194
REMARK   75  A    between atoms: _196  and  _198
REMARK   76  A    between atoms: _198  and  _199
REMARK   77  A    between atoms: _198  and  _201
REMARK   78  A    between atoms: _201  and  _202
REMARK   79  A    between atoms: _207  and  _208
REMARK   80  A    between atoms: _210  and  _212
REMARK   81  A    between atoms: _212  and  _213
REMARK   82  A    between atoms: _212  and  _215
REMARK   83  A    between atoms: _215  and  _216
REMARK   84  A    between atoms: _221  and  _222
REMARK   85  A    between atoms: _224  and  _226
REMARK   86  A    between atoms: _226  and  _227
REMARK   87  A    between atoms: _226  and  _229
REMARK   88  A    between atoms: _229  and  _230
REMARK   89  A    between atoms: _232  and  _234
REMARK   90  A    between atoms: _234  and  _235
REMARK   91  A    between atoms: _234  and  _237
REMARK   92  A    between atoms: _237  and  _238
REMARK   93  A    between atoms: _238  and  _239
REMARK   94  A    between atoms: _239  and  _240
REMARK   95  A    between atoms: _249  and  _251
REMARK   96  A    between atoms: _251  and  _252
REMARK   97  A    between atoms: _251  and  _254
REMARK   98  A    between atoms: _254  and  _255
REMARK   99  A    between atoms: _257  and  _259
REMARK  100  A    between atoms: _259  and  _260
REMARK  101  A    between atoms: _259  and  _262
REMARK  102  A    between atoms: _262  and  _263
REMARK  103  A    between atoms: _263  and  _264
REMARK  104  A    between atoms: _270  and  _271
REMARK  105  A    between atoms: _276  and  _278
REMARK  106  A    between atoms: _278  and  _279
REMARK  107  A    between atoms: _278  and  _281
REMARK  108  A    between atoms: _281  and  _282
REMARK  109  A    between atoms: _285  and  _287
REMARK  110  A    between atoms: _287  and  _288
REMARK  111  A    between atoms: _287  and  _290
REMARK  112  A    between atoms: _290  and  _291
REMARK  113  A    between atoms: _291  and  _292
REMARK  114  A    between atoms: _292  and  _293
REMARK  115  A    between atoms: _303  and  _304
REMARK  116  A    between atoms: _309  and  _311
REMARK  117  A    between atoms: _311  and  _312
REMARK  118  A    between atoms: _311  and  _314
REMARK  119  A    between atoms: _314  and  _315
REMARK  120  A    between atoms: _315  and  _316
REMARK  121  A    between atoms: _319  and  _321
REMARK  122  A    between atoms: _321  and  _322
REMARK  123  A    between atoms: _321  and  _324
REMARK  124  A    between atoms: _324  and  _325
REMARK  125  A    between atoms: _327  and  _329
REMARK  126  A    between atoms: _329  and  _330
REMARK  127  A    between atoms: _329  and  _332
REMARK  128  A    between atoms: _332  and  _333
REMARK  129  A    between atoms: _343  and  _345
REMARK  130  A    between atoms: _345  and  _346
REMARK  131  A    between atoms: _345  and  _348
REMARK  132  A    between atoms: _348  and  _349
REMARK  133  A    between atoms: _349  and  _350
REMARK  134  A    between atoms: _353  and  _355
REMARK  135  A    between atoms: _355  and  _356
REMARK  136  A    between atoms: _355  and  _358
REMARK  137  A    between atoms: _358  and  _359
REMARK  138  A    between atoms: _362  and  _364
REMARK  139  A    between atoms: _364  and  _365
REMARK  140  A    between atoms: _364  and  _367
REMARK  141  A    between atoms: _367  and  _368
REMARK  142  A    between atoms: _371  and  _373
REMARK  143  A    between atoms: _373  and  _374
REMARK  144  A    between atoms: _373  and  _376
REMARK  145  A    between atoms: _376  and  _377
REMARK  146  A    between atoms: _377  and  _378
REMARK  147  A    between atoms: _378  and  _379
REMARK  148  A    between atoms: _388  and  _390
REMARK  149  A    between atoms: _390  and  _391
REMARK  150  A    between atoms: _394  and  _396
REMARK  151  A    between atoms: _396  and  _397
REMARK  152  A    between atoms: _400  and  _402
REMARK  153  A    between atoms: _402  and  _403
REMARK  154  A    between atoms: _406  and  _408
REMARK  155  A    between atoms: _408  and  _409
REMARK  156  A    between atoms: _408  and  _411
REMARK  157  A    between atoms: _411  and  _412
REMARK  158  A    between atoms: _414  and  _416
REMARK  159  A    between atoms: _416  and  _417
REMARK  160  A    between atoms: _419  and  _421
REMARK  161  A    between atoms: _421  and  _422
REMARK  162  A    between atoms: _421  and  _424
REMARK  163  A    between atoms: _424  and  _425
REMARK  164  A    between atoms: _435  and  _437
REMARK  165  A    between atoms: _437  and  _438
REMARK  166  A    between atoms: _437  and  _440
REMARK  167  A    between atoms: _440  and  _441
REMARK  168  A    between atoms: _444  and  _446
REMARK  169  A    between atoms: _446  and  _447
REMARK  170  A    between atoms: _446  and  _449
REMARK  171  A    between atoms: _449  and  _450
REMARK  172  A    between atoms: _456  and  _458
REMARK  173  A    between atoms: _458  and  _459
REMARK  174  A    between atoms: _458  and  _461
REMARK  175  A    between atoms: _461  and  _462
REMARK  176  A    between atoms: _462  and  _463
REMARK  177  A    between atoms: _468  and  _470
REMARK  178  A    between atoms: _470  and  _471
REMARK  179  A    between atoms: _470  and  _473
REMARK  180  A    between atoms: _473  and  _474
REMARK  181  A    between atoms: _484  and  _486
REMARK  182  A    between atoms: _486  and  _487
REMARK  183  A    between atoms: _486  and  _489
REMARK  184  A    between atoms: _489  and  _490
REMARK  185  A    between atoms: _501  and  _502
REMARK  186  A    between atoms: _507  and  _509
REMARK  187  A    between atoms: _509  and  _510
REMARK  188  A    between atoms: _509  and  _512
REMARK  189  A    between atoms: _512  and  _513
REMARK  190  A    between atoms: _513  and  _514
REMARK  191  A    between atoms: _517  and  _519
REMARK  192  A    between atoms: _519  and  _520
REMARK  193  A    between atoms: _519  and  _522
REMARK  194  A    between atoms: _522  and  _523
REMARK  195  A    between atoms: _523  and  _524
REMARK  196  A    between atoms: _524  and  _525
REMARK  197  A    between atoms: _525  and  _526
REMARK  198  A    between atoms: _530  and  _532
REMARK  199  A    between atoms: _532  and  _533
REMARK  200  A    between atoms: _535  and  _537
REMARK  201  A    between atoms: _537  and  _538
REMARK  202  A    between atoms: _537  and  _540
REMARK  203  A    between atoms: _540  and  _541
REMARK  204  A    between atoms: _541  and  _542
REMARK  205  A    between atoms: _545  and  _547
REMARK  206  A    between atoms: _547  and  _548
REMARK  207  A    between atoms: _547  and  _550
REMARK  208  A    between atoms: _550  and  _551
REMARK  209  A    between atoms: _556  and  _557
REMARK  210  A    between atoms: _559  and  _561
REMARK  211  A    between atoms: _561  and  _562
REMARK  212  A    between atoms: _561  and  _564
REMARK  213  A    between atoms: _564  and  _565
REMARK  214  A    between atoms: _565  and  _566
REMARK  215  A    between atoms: _571  and  _573
REMARK  216  A    between atoms: _573  and  _574
REMARK  217  A    between atoms: _573  and  _576
REMARK  218  A    between atoms: _576  and  _577
REMARK  219  A    between atoms: _583  and  _585
REMARK  220  A    between atoms: _585  and  _586
REMARK  221  A    between atoms: _588  and  _590
REMARK  222  A    between atoms: _590  and  _591
REMARK  223  A    between atoms: _590  and  _593
REMARK  224  A    between atoms: _593  and  _594
REMARK  225  A    between atoms: _604  and  _606
REMARK  226  A    between atoms: _606  and  _607
REMARK  227  A    between atoms: _606  and  _609
REMARK  228  A    between atoms: _609  and  _610
REMARK                            x       y       z     vdW  Elec       q    Type
REMARK                         _______ _______ _______ _____ _____    ______ ____
ROOT
ATOM      1  C   GLN A   1      26.970  43.393   9.689  0.00  0.00    +0.238 C 
ATOM      2  O   GLN A   1      27.457  43.359  10.791  0.00  0.00    -0.274 OA
ATOM      3  N   TRP A   2      25.961  42.601   9.333  0.00  0.00    -0.298 N 
ATOM      4  H   TRP A   2      25.459  42.771   8.438  0.00  0.00    +0.150 HD
ENDROOT
BRANCH   1   5
ATOM      5  CA  GLN A   1      27.431  44.468   8.721  0.00  0.00    +0.145 C 
BRANCH   5   6
ATOM      6  N   GLN A   1      27.181  44.161   7.319  0.00  0.00    -0.238 NA
ATOM      7  H   GLN A   1      26.333  44.534   6.847  0.00  0.00    +0.142 HD
ENDBRANCH   5   6
BRANCH   5   8
ATOM      8  CB  GLN A   1      26.861  45.841   9.095  0.00  0.00    +0.036 C 
BRANCH   8   9
ATOM      9  CG  GLN A   1      25.332  45.929   9.012  0.00  0.00    +0.087 C 
BRANCH   9  10
ATOM     10  CD  GLN A   1      24.825  47.260   9.489  0.00  0.00    +0.219 C 
ATOM     11  OE1 GLN A   1      25.575  48.055  10.091  0.00  0.00    -0.275 OA
ATOM     12  NE2 GLN A   1      23.563  47.535   9.224  0.00  0.00    -0.329 N 
ATOM     13 HE21 GLN A   1      23.156  48.445   9.520  0.00  0.00    +0.145 HD
ATOM     14 HE22 GLN A   1      22.975  46.842   8.719  0.00  0.00    +0.145 HD
ENDBRANCH   9  10
ENDBRANCH   8   9
ENDBRANCH   5   8
ENDBRANCH   1   5
BRANCH   3  15
ATOM     15  CA  TRP A   2      25.557  41.491  10.198  0.00  0.00    +0.141 C 
BRANCH  15  16
ATOM     16  C   TRP A   2      26.289  40.209   9.811  0.00  0.00    +0.227 C 
ATOM     17  O   TRP A   2      25.740  39.283   9.263  0.00  0.00    -0.286 OA
ENDBRANCH  15  16
BRANCH  15  18
ATOM     18  CB  TRP A   2      24.032  41.284  10.199  0.00  0.00    +0.056 C 
BRANCH  18  19
ATOM     19  CG  TRP A   2      23.305  42.424  10.862  0.00  0.00    -0.002 A 
ATOM     20  CD2 TRP A   2      22.948  42.546  12.262  0.00  0.00    +0.013 A 
ATOM     21  CE3 TRP A   2      23.069  41.714  13.379  0.00  0.00    +0.001 A 
ATOM     22  CZ3 TRP A   2      22.592  42.177  14.592  0.00  0.00    +0.000 A 
ATOM     23  CH2 TRP A   2      21.991  43.420  14.713  0.00  0.00    +0.001 A 
ATOM     24  CZ2 TRP A   2      21.845  44.249  13.640  0.00  0.00    +0.017 A 
ATOM     25  CE2 TRP A   2      22.299  43.796  12.415  0.00  0.00    +0.056 A 
ATOM     26  NE1 TRP A   2      22.316  44.419  11.194  0.00  0.00    -0.352 N 
ATOM     27  HE1 TRP A   2      21.938  45.368  10.996  0.00  0.00    +0.166 HD
ATOM     28  CD1 TRP A   2      22.909  43.594  10.276  0.00  0.00    +0.068 A 
ENDBRANCH  18  19
ENDBRANCH  15  18
ENDBRANCH   3  15
TORSDOF 9
REMARK  Name = ../refined-set-2016/2jg0/2jg0_pocket.pdb
REMARK  228 active torsions:
REMARK  status: ('A' for Active; 'I' for Inactive)
REMARK    1  A    between atoms: _1  and  _3
REMARK    2  A    between atoms: _3  and  _4
REMARK    3  A    between atoms: _3  and  _6
REMARK    4  A    between atoms: _6  and  _7
REMARK    5  A    between atoms: _10  and  _12
REMARK    6  A    between atoms: _12  and  _13
REMARK    7  A    between atoms: _12  and  _15
REMARK    8  A    between atoms: _15  and  _16
REMARK    9  A    between atoms: _16  and  _17
REMARK   10  A    between atoms: _22  and  _24
REMARK   11  A    between atoms: _24  and  _25
REMARK   12  A    between atoms: _24  and  _27
REMARK   13  A    between atoms: _27  and  _28
REMARK   14  A    between atoms: _28  and  _29
REMARK   15  A    between atoms: _29  and  _30
REMARK   16  A    between atoms: _30  and  _31
REMARK   17  A    between atoms: _35  and  _37
REMARK   18  A    between atoms: _37  and  _38
REMARK   19  A    between atoms: _37  and  _40
REMARK   20  A    between atoms: _44  and  _45
REMARK   21  A    between atoms: _50  and  _52
REMARK   22  A    between atoms: _52  and  _53
REMARK   23  A    between atoms: _55  and  _57
REMARK   24  A    between atoms: _57  and  _58
REMARK   25  A    between atoms: _57  and  _60
REMARK   26  A    between atoms: _60  and  _61
REMARK   27  A    between atoms: _61  and  _62
REMARK   28  A    between atoms: _62  and  _63
REMARK   29  A    between atoms: _72  and  _74
REMARK   30  A    between atoms: _74  and  _75
REMARK   31  A    between atoms: _74  and  _77
REMARK   32  A    between atoms: _77  and  _78
REMARK   33  A    between atoms: _84  and  _86
REMARK   34  A    between atoms: _86  and  _87
REMARK   35  A    between atoms: _86  and  _89
REMARK   36  A    between atoms: _89  and  _90
REMARK   37  A    between atoms: _90  and  _91
REMARK   38  A    between atoms: _91  and  _92
REMARK   39  A    between atoms: _101  and  _103
REMARK   40  A    between atoms: _103  and  _104
REMARK   41  A    between atoms: _103  and  _106
REMARK   42  A    between atoms: _106  and  _107
REMARK   43  A    between atoms: _107  and  _108
REMARK   44  A    between atoms: _111  and  _113
REMARK   45  A    between atoms: _113  and  _114
REMARK   46  A    between atoms: _113  and  _116
REMARK   47  A    between atoms: _119  and  _121
REMARK   48  A    between atoms: _121  and  _122
REMARK   49  A    between atoms: _121  and  _124
REMARK   50  A    between atoms: _124  and  _125
REMARK   51  A    between atoms: _130  and  _131
REMARK   52  A    between atoms: _133  and  _135
REMARK   53  A    between atoms: _135  and  _136
REMARK   54  A    between atoms: _135  and  _138
REMARK   55  A    between atoms: _138  and  _139
REMARK   56  A    between atoms: _144  and  _145
REMARK   57  A    between atoms: _147  and  _149
REMARK   58  A    between atoms: _149  and  _150
REMARK   59  A    between atoms: _149  and  _152
REMARK   60  A    between atoms: _152  and  _153
REMARK   61  A    between atoms: _163  and  _165
REMARK   62  A    between atoms: _165  and  _166
REMARK   63  A    between atoms: _165  and  _168
REMARK   64  A    between atoms: _168  and  _169
REMARK   65  A    between atoms: _172  and  _174
REMARK   66  A    between atoms: _174  and  _175
REMARK   67  A    between atoms: _174  and  _177
REMARK   68  A    between atoms: _177  and  _178
REMARK   69  A    between atoms: _180  and  _182
REMARK   70  A    between atoms: _182  and  _183
REMARK   71  A    between atoms: _182  and  _185
REMARK   72  A    between atoms: _185  and  _186
REMARK   73  A    between atoms: _191  and  _193
REMARK   74  A    between atoms: _193  and  _194
REMARK   75  A    between atoms: _196  and  _198
REMARK   76  A    between atoms: _198  and  _199
REMARK   77  A    between atoms: _198  and  _201
REMARK   78  A    between atoms: _201  and  _202
REMARK   79  A    between atoms: _207  and  _208
REMARK   80  A    between atoms: _210  and  _212
REMARK   81  A    between atoms: _212  and  _213
REMARK   82  A    between atoms: _212  and  _215
REMARK   83  A    between atoms: _215  and  _216
REMARK   84  A    between atoms: _221  and  _222
REMARK   85  A    between atoms: _224  and  _226
REMARK   86  A    between atoms: _226  and  _227
REMARK   87  A    between atoms: _226  and  _229
REMARK   88  A    between atoms: _229  and  _230
REMARK   89  A    between atoms: _232  and  _234
REMARK   90  A    between atoms: _234  and  _235
REMARK   91  A    between atoms: _234  and  _237
REMARK   92  A    between atoms: _237  and  _238
REMARK   93  A    between atoms: _238  and  _239
REMARK   94  A    between atoms: _239  and  _240
REMARK   95  A    between atoms: _249  and  _251
REMARK   96  A    between atoms: _251  and  _252
REMARK   97  A    between atoms: _251  and  _254
REMARK   98  A    between atoms: _254  and  _255
REMARK   99  A    between atoms: _257  and  _259
REMARK  100  A    between atoms: _259  and  _260
REMARK  101  A    between atoms: _259  and  _262
REMARK  102  A    between atoms: _262  and  _263
REMARK  103  A    between atoms: _263  and  _264
REMARK  104  A    between atoms: _270  and  _271
REMARK  105  A    between atoms: _276  and  _278
REMARK  106  A    between atoms: _278  and  _279
REMARK  107  A    between atoms: _278  and  _281
REMARK  108  A    between atoms: _281  and  _282
REMARK  109  A    between atoms: _285  and  _287
REMARK  110  A    between atoms: _287  and  _288
REMARK  111  A    between atoms: _287  and  _290
REMARK  112  A    between atoms: _290  and  _291
REMARK  113  A    between atoms: _291  and  _292
REMARK  114  A    between atoms: _292  and  _293
REMARK  115  A    between atoms: _303  and  _304
REMARK  116  A    between atoms: _309  and  _311
REMARK  117  A    between atoms: _311  and  _312
REMARK  118  A    between atoms: _311  and  _314
REMARK  119  A    between atoms: _314  and  _315
REMARK  120  A    between atoms: _315  and  _316
REMARK  121  A    between atoms: _319  and  _321
REMARK  122  A    between atoms: _321  and  _322
REMARK  123  A    between atoms: _321  and  _324
REMARK  124  A    between atoms: _324  and  _325
REMARK  125  A    between atoms: _327  and  _329
REMARK  126  A    between atoms: _329  and  _330
REMARK  127  A    between atoms: _329  and  _332
REMARK  128  A    between atoms: _332  and  _333
REMARK  129  A    between atoms: _343  and  _345
REMARK  130  A    between atoms: _345  and  _346
REMARK  131  A    between atoms: _345  and  _348
REMARK  132  A    between atoms: _348  and  _349
REMARK  133  A    between atoms: _349  and  _350
REMARK  134  A    between atoms: _353  and  _355
REMARK  135  A    between atoms: _355  and  _356
REMARK  136  A    between atoms: _355  and  _358
REMARK  137  A    between atoms: _358  and  _359
REMARK  138  A    between atoms: _362  and  _364
REMARK  139  A    between atoms: _364  and  _365
REMARK  140  A    between atoms: _364  and  _367
REMARK  141  A    between atoms: _367  and  _368
REMARK  142  A    between atoms: _371  and  _373
REMARK  143  A    between atoms: _373  and  _374
REMARK  144  A    between atoms: _373  and  _376
REMARK  145  A    between atoms: _376  and  _377
REMARK  146  A    between atoms: _377  and  _378
REMARK  147  A    between atoms: _378  and  _379
REMARK  148  A    between atoms: _388  and  _390
REMARK  149  A    between atoms: _390  and  _391
REMARK  150  A    between atoms: _394  and  _396
REMARK  151  A    between atoms: _396  and  _397
REMARK  152  A    between atoms: _400  and  _402
REMARK  153  A    between atoms: _402  and  _403
REMARK  154  A    between atoms: _406  and  _408
REMARK  155  A    between atoms: _408  and  _409
REMARK  156  A    between atoms: _408  and  _411
REMARK  157  A    between atoms: _411  and  _412
REMARK  158  A    between atoms: _414  and  _416
REMARK  159  A    between atoms: _416  and  _417
REMARK  160  A    between atoms: _419  and  _421
REMARK  161  A    between atoms: _421  and  _422
REMARK  162  A    between atoms: _421  and  _424
REMARK  163  A    between atoms: _424  and  _425
REMARK  164  A    between atoms: _435  and  _437
REMARK  165  A    between atoms: _437  and  _438
REMARK  166  A    between atoms: _437  and  _440
REMARK  167  A    between atoms: _440  and  _441
REMARK  168  A    between atoms: _444  and  _446
REMARK  169  A    between atoms: _446  and  _447
REMARK  170  A    between atoms: _446  and  _449
REMARK  171  A    between atoms: _449  and  _450
REMARK  172  A    between atoms: _456  and  _458
REMARK  173  A    between atoms: _458  and  _459
REMARK  174  A    between atoms: _458  and  _461
REMARK  175  A    between atoms: _461  and  _462
REMARK  176  A    between atoms: _462  and  _463
REMARK  177  A    between atoms: _468  and  _470
REMARK  178  A    between atoms: _470  and  _471
REMARK  179  A    between atoms: _470  and  _473
REMARK  180  A    between atoms: _473  and  _474
REMARK  181  A    between atoms: _484  and  _486
REMARK  182  A    between atoms: _486  and  _487
REMARK  183  A    between atoms: _486  and  _489
REMARK  184  A    between atoms: _489  and  _490
REMARK  185  A    between atoms: _501  and  _502
REMARK  186  A    between atoms: _507  and  _509
REMARK  187  A    between atoms: _509  and  _510
REMARK  188  A    between atoms: _509  and  _512
REMARK  189  A    between atoms: _512  and  _513
REMARK  190  A    between atoms: _513  and  _514
REMARK  191  A    between atoms: _517  and  _519
REMARK  192  A    between atoms: _519  and  _520
REMARK  193  A    between atoms: _519  and  _522
REMARK  194  A    between atoms: _522  and  _523
REMARK  195  A    between atoms: _523  and  _524
REMARK  196  A    between atoms: _524  and  _525
REMARK  197  A    between atoms: _525  and  _526
REMARK  198  A    between atoms: _530  and  _532
REMARK  199  A    between atoms: _532  and  _533
REMARK  200  A    between atoms: _535  and  _537
REMARK  201  A    between atoms: _537  and  _538
REMARK  202  A    between atoms: _537  and  _540
REMARK  203  A    between atoms: _540  and  _541
REMARK  204  A    between atoms: _541  and  _542
REMARK  205  A    between atoms: _545  and  _547
REMARK  206  A    between atoms: _547  and  _548
REMARK  207  A    between atoms: _547  and  _550
REMARK  208  A    between atoms: _550  and  _551
REMARK  209  A    between atoms: _556  and  _557
REMARK  210  A    between atoms: _559  and  _561
REMARK  211  A    between atoms: _561  and  _562
REMARK  212  A    between atoms: _561  and  _564
REMARK  213  A    between atoms: _564  and  _565
REMARK  214  A    between atoms: _565  and  _566
REMARK  215  A    between atoms: _571  and  _573
REMARK  216  A    between atoms: _573  and  _574
REMARK  217  A    between atoms: _573  and  _576
REMARK  218  A    between atoms: _576  and  _577
REMARK  219  A    between atoms: _583  and  _585
REMARK  220  A    between atoms: _585  and  _586
REMARK  221  A    between atoms: _588  and  _590
REMARK  222  A    between atoms: _590  and  _591
REMARK  223  A    between atoms: _590  and  _593
REMARK  224  A    between atoms: _593  and  _594
REMARK  225  A    between atoms: _604  and  _606
REMARK  226  A    between atoms: _606  and  _607
REMARK  227  A    between atoms: _606  and  _609
REMARK  228  A    between atoms: _609  and  _610
REMARK                            x       y       z     vdW  Elec       q    Type
REMARK                         _______ _______ _______ _____ _____    ______ ____
ROOT
ATOM      1  CG  TRP A   1      25.586  43.701  15.594  0.00  0.00    -0.002 A 
ATOM      2  CD2 TRP A   1      25.167  44.912  14.952  0.00  0.00    +0.013 A 
ATOM      3  CE3 TRP A   1      24.398  46.016  15.366  0.00  0.00    +0.001 A 
ATOM      4  CZ3 TRP A   1      24.104  47.003  14.470  0.00  0.00    +0.000 A 
ATOM      5  CH2 TRP A   1      24.560  46.941  13.143  0.00  0.00    +0.001 A 
ATOM      6  CZ2 TRP A   1      25.321  45.886  12.703  0.00  0.00    +0.017 A 
ATOM      7  CE2 TRP A   1      25.605  44.856  13.623  0.00  0.00    +0.056 A 
ATOM      8  NE1 TRP A   1      26.303  43.683  13.471  0.00  0.00    -0.352 N 
ATOM      9  HE1 TRP A   1      26.764  43.363  12.595  0.00  0.00    +0.166 HD
ATOM     10  CD1 TRP A   1      26.294  42.996  14.670  0.00  0.00    +0.068 A 
ENDROOT
BRANCH   1  11
ATOM     11  CB  TRP A   1      25.277  43.314  17.009  0.00  0.00    +0.053 C 
BRANCH  11  12
ATOM     12  CA  TRP A   1      26.406  43.521  17.993  0.00  0.00    +0.137 C 
BRANCH  12  13
ATOM     13  N   TRP A   1      27.468  42.605  17.687  0.00  0.00    -0.239 NA
ATOM     14  H   TRP A   1      27.246  41.590  17.645  0.00  0.00    +0.142 HD
ENDBRANCH  12  13
BRANCH  12  15
ATOM     15  C   TRP A   1      25.912  43.283  19.404  0.00  0.00    +0.224 C 
ATOM     16  O   TRP A   1      25.582  42.149  19.772  0.00  0.00    -0.287 OA
ENDBRANCH  12  15
ENDBRANCH  11  12
ENDBRANCH   1  11
TORSDOF 4
REMARK  Name = ../refined-set-2016/2jg0/2jg0_pocket.pdb
REMARK  228 active torsions:
REMARK  status: ('A' for Active; 'I' for Inactive)
REMARK    1  A    between atoms: _1  and  _3
REMARK    2  A    between atoms: _3  and  _4
REMARK    3  A    between atoms: _3  and  _6
REMARK    4  A    between atoms: _6  and  _7
REMARK    5  A    between atoms: _10  and  _12
REMARK    6  A    between atoms: _12  and  _13
REMARK    7  A    between atoms: _12  and  _15
REMARK    8  A    between atoms: _15  and  _16
REMARK    9  A    between atoms: _16  and  _17
REMARK   10  A    between atoms: _22  and  _24
REMARK   11  A    between atoms: _24  and  _25
REMARK   12  A    between atoms: _24  and  _27
REMARK   13  A    between atoms: _27  and  _28
REMARK   14  A    between atoms: _28  and  _29
REMARK   15  A    between atoms: _29  and  _30
REMARK   16  A    between atoms: _30  and  _31
REMARK   17  A    between atoms: _35  and  _37
REMARK   18  A    between atoms: _37  and  _38
REMARK   19  A    between atoms: _37  and  _40
REMARK   20  A    between atoms: _44  and  _45
REMARK   21  A    between atoms: _50  and  _52
REMARK   22  A    between atoms: _52  and  _53
REMARK   23  A    between atoms: _55  and  _57
REMARK   24  A    between atoms: _57  and  _58
REMARK   25  A    between atoms: _57  and  _60
REMARK   26  A    between atoms: _60  and  _61
REMARK   27  A    between atoms: _61  and  _62
REMARK   28  A    between atoms: _62  and  _63
REMARK   29  A    between atoms: _72  and  _74
REMARK   30  A    between atoms: _74  and  _75
REMARK   31  A    between atoms: _74  and  _77
REMARK   32  A    between atoms: _77  and  _78
REMARK   33  A    between atoms: _84  and  _86
REMARK   34  A    between atoms: _86  and  _87
REMARK   35  A    between atoms: _86  and  _89
REMARK   36  A    between atoms: _89  and  _90
REMARK   37  A    between atoms: _90  and  _91
REMARK   38  A    between atoms: _91  and  _92
REMARK   39  A    between atoms: _101  and  _103
REMARK   40  A    between atoms: _103  and  _104
REMARK   41  A    between atoms: _103  and  _106
REMARK   42  A    between atoms: _106  and  _107
REMARK   43  A    between atoms: _107  and  _108
REMARK   44  A    between atoms: _111  and  _113
REMARK   45  A    between atoms: _113  and  _114
REMARK   46  A    between atoms: _113  and  _116
REMARK   47  A    between atoms: _119  and  _121
REMARK   48  A    between atoms: _121  and  _122
REMARK   49  A    between atoms: _121  and  _124
REMARK   50  A    between atoms: _124  and  _125
REMARK   51  A    between atoms: _130  and  _131
REMARK   52  A    between atoms: _133  and  _135
REMARK   53  A    between atoms: _135  and  _136
REMARK   54  A    between atoms: _135  and  _138
REMARK   55  A    between atoms: _138  and  _139
REMARK   56  A    between atoms: _144  and  _145
REMARK   57  A    between atoms: _147  and  _149
REMARK   58  A    between atoms: _149  and  _150
REMARK   59  A    between atoms: _149  and  _152
REMARK   60  A    between atoms: _152  and  _153
REMARK   61  A    between atoms: _163  and  _165
REMARK   62  A    between atoms: _165  and  _166
REMARK   63  A    between atoms: _165  and  _168
REMARK   64  A    between atoms: _168  and  _169
REMARK   65  A    between atoms: _172  and  _174
REMARK   66  A    between atoms: _174  and  _175
REMARK   67  A    between atoms: _174  and  _177
REMARK   68  A    between atoms: _177  and  _178
REMARK   69  A    between atoms: _180  and  _182
REMARK   70  A    between atoms: _182  and  _183
REMARK   71  A    between atoms: _182  and  _185
REMARK   72  A    between atoms: _185  and  _186
REMARK   73  A    between atoms: _191  and  _193
REMARK   74  A    between atoms: _193  and  _194
REMARK   75  A    between atoms: _196  and  _198
REMARK   76  A    between atoms: _198  and  _199
REMARK   77  A    between atoms: _198  and  _201
REMARK   78  A    between atoms: _201  and  _202
REMARK   79  A    between atoms: _207  and  _208
REMARK   80  A    between atoms: _210  and  _212
REMARK   81  A    between atoms: _212  and  _213
REMARK   82  A    between atoms: _212  and  _215
REMARK   83  A    between atoms: _215  and  _216
REMARK   84  A    between atoms: _221  and  _222
REMARK   85  A    between atoms: _224  and  _226
REMARK   86  A    between atoms: _226  and  _227
REMARK   87  A    between atoms: _226  and  _229
REMARK   88  A    between atoms: _229  and  _230
REMARK   89  A    between atoms: _232  and  _234
REMARK   90  A    between atoms: _234  and  _235
REMARK   91  A    between atoms: _234  and  _237
REMARK   92  A    between atoms: _237  and  _238
REMARK   93  A    between atoms: _238  and  _239
REMARK   94  A    between atoms: _239  and  _240
REMARK   95  A    between atoms: _249  and  _251
REMARK   96  A    between atoms: _251  and  _252
REMARK   97  A    between atoms: _251  and  _254
REMARK   98  A    between atoms: _254  and  _255
REMARK   99  A    between atoms: _257  and  _259
REMARK  100  A    between atoms: _259  and  _260
REMARK  101  A    between atoms: _259  and  _262
REMARK  102  A    between atoms: _262  and  _263
REMARK  103  A    between atoms: _263  and  _264
REMARK  104  A    between atoms: _270  and  _271
REMARK  105  A    between atoms: _276  and  _278
REMARK  106  A    between atoms: _278  and  _279
REMARK  107  A    between atoms: _278  and  _281
REMARK  108  A    between atoms: _281  and  _282
REMARK  109  A    between atoms: _285  and  _287
REMARK  110  A    between atoms: _287  and  _288
REMARK  111  A    between atoms: _287  and  _290
REMARK  112  A    between atoms: _290  and  _291
REMARK  113  A    between atoms: _291  and  _292
REMARK  114  A    between atoms: _292  and  _293
REMARK  115  A    between atoms: _303  and  _304
REMARK  116  A    between atoms: _309  and  _311
REMARK  117  A    between atoms: _311  and  _312
REMARK  118  A    between atoms: _311  and  _314
REMARK  119  A    between atoms: _314  and  _315
REMARK  120  A    between atoms: _315  and  _316
REMARK  121  A    between atoms: _319  and  _321
REMARK  122  A    between atoms: _321  and  _322
REMARK  123  A    between atoms: _321  and  _324
REMARK  124  A    between atoms: _324  and  _325
REMARK  125  A    between atoms: _327  and  _329
REMARK  126  A    between atoms: _329  and  _330
REMARK  127  A    between atoms: _329  and  _332
REMARK  128  A    between atoms: _332  and  _333
REMARK  129  A    between atoms: _343  and  _345
REMARK  130  A    between atoms: _345  and  _346
REMARK  131  A    between atoms: _345  and  _348
REMARK  132  A    between atoms: _348  and  _349
REMARK  133  A    between atoms: _349  and  _350
REMARK  134  A    between atoms: _353  and  _355
REMARK  135  A    between atoms: _355  and  _356
REMARK  136  A    between atoms: _355  and  _358
REMARK  137  A    between atoms: _358  and  _359
REMARK  138  A    between atoms: _362  and  _364
REMARK  139  A    between atoms: _364  and  _365
REMARK  140  A    between atoms: _364  and  _367
REMARK  141  A    between atoms: _367  and  _368
REMARK  142  A    between atoms: _371  and  _373
REMARK  143  A    between atoms: _373  and  _374
REMARK  144  A    between atoms: _373  and  _376
REMARK  145  A    between atoms: _376  and  _377
REMARK  146  A    between atoms: _377  and  _378
REMARK  147  A    between atoms: _378  and  _379
REMARK  148  A    between atoms: _388  and  _390
REMARK  149  A    between atoms: _390  and  _391
REMARK  150  A    between atoms: _394  and  _396
REMARK  151  A    between atoms: _396  and  _397
REMARK  152  A    between atoms: _400  and  _402
REMARK  153  A    between atoms: _402  and  _403
REMARK  154  A    between atoms: _406  and  _408
REMARK  155  A    between atoms: _408  and  _409
REMARK  156  A    between atoms: _408  and  _411
REMARK  157  A    between atoms: _411  and  _412
REMARK  158  A    between atoms: _414  and  _416
REMARK  159  A    between atoms: _416  and  _417
REMARK  160  A    between atoms: _419  and  _421
REMARK  161  A    between atoms: _421  and  _422
REMARK  162  A    between atoms: _421  and  _424
REMARK  163  A    between atoms: _424  and  _425
REMARK  164  A    between atoms: _435  and  _437
REMARK  165  A    between atoms: _437  and  _438
REMARK  166  A    between atoms: _437  and  _440
REMARK  167  A    between atoms: _440  and  _441
REMARK  168  A    between atoms: _444  and  _446
REMARK  169  A    between atoms: _446  and  _447
REMARK  170  A    between atoms: _446  and  _449
REMARK  171  A    between atoms: _449  and  _450
REMARK  172  A    between atoms: _456  and  _458
REMARK  173  A    between atoms: _458  and  _459
REMARK  174  A    between atoms: _458  and  _461
REMARK  175  A    between atoms: _461  and  _462
REMARK  176  A    between atoms: _462  and  _463
REMARK  177  A    between atoms: _468  and  _470
REMARK  178  A    between atoms: _470  and  _471
REMARK  179  A    between atoms: _470  and  _473
REMARK  180  A    between atoms: _473  and  _474
REMARK  181  A    between atoms: _484  and  _486
REMARK  182  A    between atoms: _486  and  _487
REMARK  183  A    between atoms: _486  and  _489
REMARK  184  A    between atoms: _489  and  _490
REMARK  185  A    between atoms: _501  and  _502
REMARK  186  A    between atoms: _507  and  _509
REMARK  187  A    between atoms: _509  and  _510
REMARK  188  A    between atoms: _509  and  _512
REMARK  189  A    between atoms: _512  and  _513
REMARK  190  A    between atoms: _513  and  _514
REMARK  191  A    between atoms: _517  and  _519
REMARK  192  A    between atoms: _519  and  _520
REMARK  193  A    between atoms: _519  and  _522
REMARK  194  A    between atoms: _522  and  _523
REMARK  195  A    between atoms: _523  and  _524
REMARK  196  A    between atoms: _524  and  _525
REMARK  197  A    between atoms: _525  and  _526
REMARK  198  A    between atoms: _530  and  _532
REMARK  199  A    between atoms: _532  and  _533
REMARK  200  A    between atoms: _535  and  _537
REMARK  201  A    between atoms: _537  and  _538
REMARK  202  A    between atoms: _537  and  _540
REMARK  203  A    between atoms: _540  and  _541
REMARK  204  A    between atoms: _541  and  _542
REMARK  205  A    between atoms: _545  and  _547
REMARK  206  A    between atoms: _547  and  _548
REMARK  207  A    between atoms: _547  and  _550
REMARK  208  A    between atoms: _550  and  _551
REMARK  209  A    between atoms: _556  and  _557
REMARK  210  A    between atoms: _559  and  _561
REMARK  211  A    between atoms: _561  and  _562
REMARK  212  A    between atoms: _561  and  _564
REMARK  213  A    between atoms: _564  and  _565
REMARK  214  A    between atoms: _565  and  _566
REMARK  215  A    between atoms: _571  and  _573
REMARK  216  A    between atoms: _573  and  _574
REMARK  217  A    between atoms: _573  and  _576
REMARK  218  A    between atoms: _576  and  _577
REMARK  219  A    between atoms: _583  and  _585
REMARK  220  A    between atoms: _585  and  _586
REMARK  221  A    between atoms: _588  and  _590
REMARK  222  A    between atoms: _590  and  _591
REMARK  223  A    between atoms: _590  and  _593
REMARK  224  A    between atoms: _593  and  _594
REMARK  225  A    between atoms: _604  and  _606
REMARK  226  A    between atoms: _606  and  _607
REMARK  227  A    between atoms: _606  and  _609
REMARK  228  A    between atoms: _609  and  _610
REMARK                            x       y       z     vdW  Elec       q    Type
REMARK                         _______ _______ _______ _____ _____    ______ ____
ROOT
ATOM      1  N   PRO A   1      23.043  43.535  21.022  0.00  0.00    -0.212 NA
ATOM      2  CA  PRO A   1      21.870  42.701  21.330  0.00  0.00    +0.137 C 
ATOM      3  CB  PRO A   1      20.872  43.068  20.227  0.00  0.00    +0.027 C 
ATOM      4  CG  PRO A   1      21.697  43.669  19.119  0.00  0.00    +0.021 C 
ATOM      5  CD  PRO A   1      22.776  44.433  19.884  0.00  0.00    +0.089 C 
ENDROOT
BRANCH   2   6
ATOM      6  C   PRO A   1      22.170  41.219  21.272  0.00  0.00    +0.224 C 
ATOM      7  O   PRO A   1      21.648  40.449  22.072  0.00  0.00    -0.287 OA
ENDBRANCH   2   6
TORSDOF 1
REMARK  Name = ../refined-set-2016/2jg0/2jg0_pocket.pdb
REMARK  228 active torsions:
REMARK  status: ('A' for Active; 'I' for Inactive)
REMARK    1  A    between atoms: _1  and  _3
REMARK    2  A    between atoms: _3  and  _4
REMARK    3  A    between atoms: _3  and  _6
REMARK    4  A    between atoms: _6  and  _7
REMARK    5  A    between atoms: _10  and  _12
REMARK    6  A    between atoms: _12  and  _13
REMARK    7  A    between atoms: _12  and  _15
REMARK    8  A    between atoms: _15  and  _16
REMARK    9  A    between atoms: _16  and  _17
REMARK   10  A    between atoms: _22  and  _24
REMARK   11  A    between atoms: _24  and  _25
REMARK   12  A    between atoms: _24  and  _27
REMARK   13  A    between atoms: _27  and  _28
REMARK   14  A    between atoms: _28  and  _29
REMARK   15  A    between atoms: _29  and  _30
REMARK   16  A    between atoms: _30  and  _31
REMARK   17  A    between atoms: _35  and  _37
REMARK   18  A    between atoms: _37  and  _38
REMARK   19  A    between atoms: _37  and  _40
REMARK   20  A    between atoms: _44  and  _45
REMARK   21  A    between atoms: _50  and  _52
REMARK   22  A    between atoms: _52  and  _53
REMARK   23  A    between atoms: _55  and  _57
REMARK   24  A    between atoms: _57  and  _58
REMARK   25  A    between atoms: _57  and  _60
REMARK   26  A    between atoms: _60  and  _61
REMARK   27  A    between atoms: _61  and  _62
REMARK   28  A    between atoms: _62  and  _63
REMARK   29  A    between atoms: _72  and  _74
REMARK   30  A    between atoms: _74  and  _75
REMARK   31  A    between atoms: _74  and  _77
REMARK   32  A    between atoms: _77  and  _78
REMARK   33  A    between atoms: _84  and  _86
REMARK   34  A    between atoms: _86  and  _87
REMARK   35  A    between atoms: _86  and  _89
REMARK   36  A    between atoms: _89  and  _90
REMARK   37  A    between atoms: _90  and  _91
REMARK   38  A    between atoms: _91  and  _92
REMARK   39  A    between atoms: _101  and  _103
REMARK   40  A    between atoms: _103  and  _104
REMARK   41  A    between atoms: _103  and  _106
REMARK   42  A    between atoms: _106  and  _107
REMARK   43  A    between atoms: _107  and  _108
REMARK   44  A    between atoms: _111  and  _113
REMARK   45  A    between atoms: _113  and  _114
REMARK   46  A    between atoms: _113  and  _116
REMARK   47  A    between atoms: _119  and  _121
REMARK   48  A    between atoms: _121  and  _122
REMARK   49  A    between atoms: _121  and  _124
REMARK   50  A    between atoms: _124  and  _125
REMARK   51  A    between atoms: _130  and  _131
REMARK   52  A    between atoms: _133  and  _135
REMARK   53  A    between atoms: _135  and  _136
REMARK   54  A    between atoms: _135  and  _138
REMARK   55  A    between atoms: _138  and  _139
REMARK   56  A    between atoms: _144  and  _145
REMARK   57  A    between atoms: _147  and  _149
REMARK   58  A    between atoms: _149  and  _150
REMARK   59  A    between atoms: _149  and  _152
REMARK   60  A    between atoms: _152  and  _153
REMARK   61  A    between atoms: _163  and  _165
REMARK   62  A    between atoms: _165  and  _166
REMARK   63  A    between atoms: _165  and  _168
REMARK   64  A    between atoms: _168  and  _169
REMARK   65  A    between atoms: _172  and  _174
REMARK   66  A    between atoms: _174  and  _175
REMARK   67  A    between atoms: _174  and  _177
REMARK   68  A    between atoms: _177  and  _178
REMARK   69  A    between atoms: _180  and  _182
REMARK   70  A    between atoms: _182  and  _183
REMARK   71  A    between atoms: _182  and  _185
REMARK   72  A    between atoms: _185  and  _186
REMARK   73  A    between atoms: _191  and  _193
REMARK   74  A    between atoms: _193  and  _194
REMARK   75  A    between atoms: _196  and  _198
REMARK   76  A    between atoms: _198  and  _199
REMARK   77  A    between atoms: _198  and  _201
REMARK   78  A    between atoms: _201  and  _202
REMARK   79  A    between atoms: _207  and  _208
REMARK   80  A    between atoms: _210  and  _212
REMARK   81  A    between atoms: _212  and  _213
REMARK   82  A    between atoms: _212  and  _215
REMARK   83  A    between atoms: _215  and  _216
REMARK   84  A    between atoms: _221  and  _222
REMARK   85  A    between atoms: _224  and  _226
REMARK   86  A    between atoms: _226  and  _227
REMARK   87  A    between atoms: _226  and  _229
REMARK   88  A    between atoms: _229  and  _230
REMARK   89  A    between atoms: _232  and  _234
REMARK   90  A    between atoms: _234  and  _235
REMARK   91  A    between atoms: _234  and  _237
REMARK   92  A    between atoms: _237  and  _238
REMARK   93  A    between atoms: _238  and  _239
REMARK   94  A    between atoms: _239  and  _240
REMARK   95  A    between atoms: _249  and  _251
REMARK   96  A    between atoms: _251  and  _252
REMARK   97  A    between atoms: _251  and  _254
REMARK   98  A    between atoms: _254  and  _255
REMARK   99  A    between atoms: _257  and  _259
REMARK  100  A    between atoms: _259  and  _260
REMARK  101  A    between atoms: _259  and  _262
REMARK  102  A    between atoms: _262  and  _263
REMARK  103  A    between atoms: _263  and  _264
REMARK  104  A    between atoms: _270  and  _271
REMARK  105  A    between atoms: _276  and  _278
REMARK  106  A    between atoms: _278  and  _279
REMARK  107  A    between atoms: _278  and  _281
REMARK  108  A    between atoms: _281  and  _282
REMARK  109  A    between atoms: _285  and  _287
REMARK  110  A    between atoms: _287  and  _288
REMARK  111  A    between atoms: _287  and  _290
REMARK  112  A    between atoms: _290  and  _291
REMARK  113  A    between atoms: _291  and  _292
REMARK  114  A    between atoms: _292  and  _293
REMARK  115  A    between atoms: _303  and  _304
REMARK  116  A    between atoms: _309  and  _311
REMARK  117  A    between atoms: _311  and  _312
REMARK  118  A    between atoms: _311  and  _314
REMARK  119  A    between atoms: _314  and  _315
REMARK  120  A    between atoms: _315  and  _316
REMARK  121  A    between atoms: _319  and  _321
REMARK  122  A    between atoms: _321  and  _322
REMARK  123  A    between atoms: _321  and  _324
REMARK  124  A    between atoms: _324  and  _325
REMARK  125  A    between atoms: _327  and  _329
REMARK  126  A    between atoms: _329  and  _330
REMARK  127  A    between atoms: _329  and  _332
REMARK  128  A    between atoms: _332  and  _333
REMARK  129  A    between atoms: _343  and  _345
REMARK  130  A    between atoms: _345  and  _346
REMARK  131  A    between atoms: _345  and  _348
REMARK  132  A    between atoms: _348  and  _349
REMARK  133  A    between atoms: _349  and  _350
REMARK  134  A    between atoms: _353  and  _355
REMARK  135  A    between atoms: _355  and  _356
REMARK  136  A    between atoms: _355  and  _358
REMARK  137  A    between atoms: _358  and  _359
REMARK  138  A    between atoms: _362  and  _364
REMARK  139  A    between atoms: _364  and  _365
REMARK  140  A    between atoms: _364  and  _367
REMARK  141  A    between atoms: _367  and  _368
REMARK  142  A    between atoms: _371  and  _373
REMARK  143  A    between atoms: _373  and  _374
REMARK  144  A    between atoms: _373  and  _376
REMARK  145  A    between atoms: _376  and  _377
REMARK  146  A    between atoms: _377  and  _378
REMARK  147  A    between atoms: _378  and  _379
REMARK  148  A    between atoms: _388  and  _390
REMARK  149  A    between atoms: _390  and  _391
REMARK  150  A    between atoms: _394  and  _396
REMARK  151  A    between atoms: _396  and  _397
REMARK  152  A    between atoms: _400  and  _402
REMARK  153  A    between atoms: _402  and  _403
REMARK  154  A    between atoms: _406  and  _408
REMARK  155  A    between atoms: _408  and  _409
REMARK  156  A    between atoms: _408  and  _411
REMARK  157  A    between atoms: _411  and  _412
REMARK  158  A    between atoms: _414  and  _416
REMARK  159  A    between atoms: _416  and  _417
REMARK  160  A    between atoms: _419  and  _421
REMARK  161  A    between atoms: _421  and  _422
REMARK  162  A    between atoms: _421  and  _424
REMARK  163  A    between atoms: _424  and  _425
REMARK  164  A    between atoms: _435  and  _437
REMARK  165  A    between atoms: _437  and  _438
REMARK  166  A    between atoms: _437  and  _440
REMARK  167  A    between atoms: _440  and  _441
REMARK  168  A    between atoms: _444  and  _446
REMARK  169  A    between atoms: _446  and  _447
REMARK  170  A    between atoms: _446  and  _449
REMARK  171  A    between atoms: _449  and  _450
REMARK  172  A    between atoms: _456  and  _458
REMARK  173  A    between atoms: _458  and  _459
REMARK  174  A    between atoms: _458  and  _461
REMARK  175  A    between atoms: _461  and  _462
REMARK  176  A    between atoms: _462  and  _463
REMARK  177  A    between atoms: _468  and  _470
REMARK  178  A    between atoms: _470  and  _471
REMARK  179  A    between atoms: _470  and  _473
REMARK  180  A    between atoms: _473  and  _474
REMARK  181  A    between atoms: _484  and  _486
REMARK  182  A    between atoms: _486  and  _487
REMARK  183  A    between atoms: _486  and  _489
REMARK  184  A    between atoms: _489  and  _490
REMARK  185  A    between atoms: _501  and  _502
REMARK  186  A    between atoms: _507  and  _509
REMARK  187  A    between atoms: _509  and  _510
REMARK  188  A    between atoms: _509  and  _512
REMARK  189  A    between atoms: _512  and  _513
REMARK  190  A    between atoms: _513  and  _514
REMARK  191  A    between atoms: _517  and  _519
REMARK  192  A    between atoms: _519  and  _520
REMARK  193  A    between atoms: _519  and  _522
REMARK  194  A    between atoms: _522  and  _523
REMARK  195  A    between atoms: _523  and  _524
REMARK  196  A    between atoms: _524  and  _525
REMARK  197  A    between atoms: _525  and  _526
REMARK  198  A    between atoms: _530  and  _532
REMARK  199  A    between atoms: _532  and  _533
REMARK  200  A    between atoms: _535  and  _537
REMARK  201  A    between atoms: _537  and  _538
REMARK  202  A    between atoms: _537  and  _540
REMARK  203  A    between atoms: _540  and  _541
REMARK  204  A    between atoms: _541  and  _542
REMARK  205  A    between atoms: _545  and  _547
REMARK  206  A    between atoms: _547  and  _548
REMARK  207  A    between atoms: _547  and  _550
REMARK  208  A    between atoms: _550  and  _551
REMARK  209  A    between atoms: _556  and  _557
REMARK  210  A    between atoms: _559  and  _561
REMARK  211  A    between atoms: _561  and  _562
REMARK  212  A    between atoms: _561  and  _564
REMARK  213  A    between atoms: _564  and  _565
REMARK  214  A    between atoms: _565  and  _566
REMARK  215  A    between atoms: _571  and  _573
REMARK  216  A    between atoms: _573  and  _574
REMARK  217  A    between atoms: _573  and  _576
REMARK  218  A    between atoms: _576  and  _577
REMARK  219  A    between atoms: _583  and  _585
REMARK  220  A    between atoms: _585  and  _586
REMARK  221  A    between atoms: _588  and  _590
REMARK  222  A    between atoms: _590  and  _591
REMARK  223  A    between atoms: _590  and  _593
REMARK  224  A    between atoms: _593  and  _594
REMARK  225  A    between atoms: _604  and  _606
REMARK  226  A    between atoms: _606  and  _607
REMARK  227  A    between atoms: _606  and  _609
REMARK  228  A    between atoms: _609  and  _610
REMARK                            x       y       z     vdW  Elec       q    Type
REMARK                         _______ _______ _______ _____ _____    ______ ____
ROOT
ATOM      1  C   GLU A   1      27.087  49.125  16.870  0.00  0.00    +0.238 C 
ATOM      2  O   GLU A   1      26.241  48.290  17.178  0.00  0.00    -0.274 OA
ATOM      3  N   LYS A   2      28.305  48.807  16.443  0.00  0.00    -0.298 N 
ATOM      4  H   LYS A   2      28.926  49.573  16.112  0.00  0.00    +0.150 HD
ENDROOT
BRANCH   1   5
ATOM      5  CA  GLU A   1      26.746  50.620  16.857  0.00  0.00    +0.145 C 
BRANCH   5   6
ATOM      6  N   GLU A   1      27.830  51.517  17.290  0.00  0.00    -0.238 NA
ATOM      7  H   GLU A   1      28.245  52.154  16.581  0.00  0.00    +0.142 HD
ENDBRANCH   5   6
BRANCH   5   8
ATOM      8  CB  GLU A   1      26.357  51.085  15.461  0.00  0.00    +0.038 C 
BRANCH   8   9
ATOM      9  CG  GLU A   1      25.302  50.297  14.733  0.00  0.00    +0.116 C 
BRANCH   9  10
ATOM     10  CD  GLU A   1      25.150  50.744  13.295  0.00  0.00    +0.365 C 
ATOM     11  OE2 GLU A   1      26.112  51.352  12.750  0.00  0.00    -0.246 OA
ATOM     12  OE1 GLU A   1      24.065  50.467  12.713  0.00  0.00    -0.246 OA
ENDBRANCH   9  10
ENDBRANCH   8   9
ENDBRANCH   5   8
ENDBRANCH   1   5
BRANCH   3  13
ATOM     13  CA  LYS A   2      28.815  47.450  16.413  0.00  0.00    +0.137 C 
BRANCH  13  14
ATOM     14  C   LYS A   2      30.316  47.503  16.489  0.00  0.00    +0.227 C 
ATOM     15  O   LYS A   2      30.911  48.550  16.212  0.00  0.00    -0.286 OA
ENDBRANCH  13  14
BRANCH  13  16
ATOM     16  CB  LYS A   2      28.389  46.695  15.147  0.00  0.00    +0.028 C 
BRANCH  16  17
ATOM     17  CG  LYS A   2      28.933  47.261  13.829  0.00  0.00    -0.000 C 
BRANCH  17  18
ATOM     18  CD  LYS A   2      28.021  48.271  13.152  0.00  0.00    -0.024 C 
BRANCH  18  19
ATOM     19  CE  LYS A   2      28.530  48.773  11.783  0.00  0.00    -0.086 C 
BRANCH  19  20
ATOM     20  NZ  LYS A   2      27.491  49.612  11.059  0.00  0.00    +0.380 N 
ATOM     21  HZ1 LYS A   2      27.251  50.441  11.639  0.00  0.00    -0.089 HD
ATOM     22  HZ2 LYS A   2      26.637  49.041  10.898  0.00  0.00    -0.089 HD
ATOM     23  HZ3 LYS A   2      27.876  49.927  10.146  0.00  0.00    -0.089 HD
ENDBRANCH  19  20
ENDBRANCH  18  19
ENDBRANCH  17  18
ENDBRANCH  16  17
ENDBRANCH  13  16
ENDBRANCH   3  13
TORSDOF 12
REMARK  Name = ../refined-set-2016/2jg0/2jg0_pocket.pdb
REMARK  228 active torsions:
REMARK  status: ('A' for Active; 'I' for Inactive)
REMARK    1  A    between atoms: _1  and  _3
REMARK    2  A    between atoms: _3  and  _4
REMARK    3  A    between atoms: _3  and  _6
REMARK    4  A    between atoms: _6  and  _7
REMARK    5  A    between atoms: _10  and  _12
REMARK    6  A    between atoms: _12  and  _13
REMARK    7  A    between atoms: _12  and  _15
REMARK    8  A    between atoms: _15  and  _16
REMARK    9  A    between atoms: _16  and  _17
REMARK   10  A    between atoms: _22  and  _24
REMARK   11  A    between atoms: _24  and  _25
REMARK   12  A    between atoms: _24  and  _27
REMARK   13  A    between atoms: _27  and  _28
REMARK   14  A    between atoms: _28  and  _29
REMARK   15  A    between atoms: _29  and  _30
REMARK   16  A    between atoms: _30  and  _31
REMARK   17  A    between atoms: _35  and  _37
REMARK   18  A    between atoms: _37  and  _38
REMARK   19  A    between atoms: _37  and  _40
REMARK   20  A    between atoms: _44  and  _45
REMARK   21  A    between atoms: _50  and  _52
REMARK   22  A    between atoms: _52  and  _53
REMARK   23  A    between atoms: _55  and  _57
REMARK   24  A    between atoms: _57  and  _58
REMARK   25  A    between atoms: _57  and  _60
REMARK   26  A    between atoms: _60  and  _61
REMARK   27  A    between atoms: _61  and  _62
REMARK   28  A    between atoms: _62  and  _63
REMARK   29  A    between atoms: _72  and  _74
REMARK   30  A    between atoms: _74  and  _75
REMARK   31  A    between atoms: _74  and  _77
REMARK   32  A    between atoms: _77  and  _78
REMARK   33  A    between atoms: _84  and  _86
REMARK   34  A    between atoms: _86  and  _87
REMARK   35  A    between atoms: _86  and  _89
REMARK   36  A    between atoms: _89  and  _90
REMARK   37  A    between atoms: _90  and  _91
REMARK   38  A    between atoms: _91  and  _92
REMARK   39  A    between atoms: _101  and  _103
REMARK   40  A    between atoms: _103  and  _104
REMARK   41  A    between atoms: _103  and  _106
REMARK   42  A    between atoms: _106  and  _107
REMARK   43  A    between atoms: _107  and  _108
REMARK   44  A    between atoms: _111  and  _113
REMARK   45  A    between atoms: _113  and  _114
REMARK   46  A    between atoms: _113  and  _116
REMARK   47  A    between atoms: _119  and  _121
REMARK   48  A    between atoms: _121  and  _122
REMARK   49  A    between atoms: _121  and  _124
REMARK   50  A    between atoms: _124  and  _125
REMARK   51  A    between atoms: _130  and  _131
REMARK   52  A    between atoms: _133  and  _135
REMARK   53  A    between atoms: _135  and  _136
REMARK   54  A    between atoms: _135  and  _138
REMARK   55  A    between atoms: _138  and  _139
REMARK   56  A    between atoms: _144  and  _145
REMARK   57  A    between atoms: _147  and  _149
REMARK   58  A    between atoms: _149  and  _150
REMARK   59  A    between atoms: _149  and  _152
REMARK   60  A    between atoms: _152  and  _153
REMARK   61  A    between atoms: _163  and  _165
REMARK   62  A    between atoms: _165  and  _166
REMARK   63  A    between atoms: _165  and  _168
REMARK   64  A    between atoms: _168  and  _169
REMARK   65  A    between atoms: _172  and  _174
REMARK   66  A    between atoms: _174  and  _175
REMARK   67  A    between atoms: _174  and  _177
REMARK   68  A    between atoms: _177  and  _178
REMARK   69  A    between atoms: _180  and  _182
REMARK   70  A    between atoms: _182  and  _183
REMARK   71  A    between atoms: _182  and  _185
REMARK   72  A    between atoms: _185  and  _186
REMARK   73  A    between atoms: _191  and  _193
REMARK   74  A    between atoms: _193  and  _194
REMARK   75  A    between atoms: _196  and  _198
REMARK   76  A    between atoms: _198  and  _199
REMARK   77  A    between atoms: _198  and  _201
REMARK   78  A    between atoms: _201  and  _202
REMARK   79  A    between atoms: _207  and  _208
REMARK   80  A    between atoms: _210  and  _212
REMARK   81  A    between atoms: _212  and  _213
REMARK   82  A    between atoms: _212  and  _215
REMARK   83  A    between atoms: _215  and  _216
REMARK   84  A    between atoms: _221  and  _222
REMARK   85  A    between atoms: _224  and  _226
REMARK   86  A    between atoms: _226  and  _227
REMARK   87  A    between atoms: _226  and  _229
REMARK   88  A    between atoms: _229  and  _230
REMARK   89  A    between atoms: _232  and  _234
REMARK   90  A    between atoms: _234  and  _235
REMARK   91  A    between atoms: _234  and  _237
REMARK   92  A    between atoms: _237  and  _238
REMARK   93  A    between atoms: _238  and  _239
REMARK   94  A    between atoms: _239  and  _240
REMARK   95  A    between atoms: _249  and  _251
REMARK   96  A    between atoms: _251  and  _252
REMARK   97  A    between atoms: _251  and  _254
REMARK   98  A    between atoms: _254  and  _255
REMARK   99  A    between atoms: _257  and  _259
REMARK  100  A    between atoms: _259  and  _260
REMARK  101  A    between atoms: _259  and  _262
REMARK  102  A    between atoms: _262  and  _263
REMARK  103  A    between atoms: _263  and  _264
REMARK  104  A    between atoms: _270  and  _271
REMARK  105  A    between atoms: _276  and  _278
REMARK  106  A    between atoms: _278  and  _279
REMARK  107  A    between atoms: _278  and  _281
REMARK  108  A    between atoms: _281  and  _282
REMARK  109  A    between atoms: _285  and  _287
REMARK  110  A    between atoms: _287  and  _288
REMARK  111  A    between atoms: _287  and  _290
REMARK  112  A    between atoms: _290  and  _291
REMARK  113  A    between atoms: _291  and  _292
REMARK  114  A    between atoms: _292  and  _293
REMARK  115  A    between atoms: _303  and  _304
REMARK  116  A    between atoms: _309  and  _311
REMARK  117  A    between atoms: _311  and  _312
REMARK  118  A    between atoms: _311  and  _314
REMARK  119  A    between atoms: _314  and  _315
REMARK  120  A    between atoms: _315  and  _316
REMARK  121  A    between atoms: _319  and  _321
REMARK  122  A    between atoms: _321  and  _322
REMARK  123  A    between atoms: _321  and  _324
REMARK  124  A    between atoms: _324  and  _325
REMARK  125  A    between atoms: _327  and  _329
REMARK  126  A    between atoms: _329  and  _330
REMARK  127  A    between atoms: _329  and  _332
REMARK  128  A    between atoms: _332  and  _333
REMARK  129  A    between atoms: _343  and  _345
REMARK  130  A    between atoms: _345  and  _346
REMARK  131  A    between atoms: _345  and  _348
REMARK  132  A    between atoms: _348  and  _349
REMARK  133  A    between atoms: _349  and  _350
REMARK  134  A    between atoms: _353  and  _355
REMARK  135  A    between atoms: _355  and  _356
REMARK  136  A    between atoms: _355  and  _358
REMARK  137  A    between atoms: _358  and  _359
REMARK  138  A    between atoms: _362  and  _364
REMARK  139  A    between atoms: _364  and  _365
REMARK  140  A    between atoms: _364  and  _367
REMARK  141  A    between atoms: _367  and  _368
REMARK  142  A    between atoms: _371  and  _373
REMARK  143  A    between atoms: _373  and  _374
REMARK  144  A    between atoms: _373  and  _376
REMARK  145  A    between atoms: _376  and  _377
REMARK  146  A    between atoms: _377  and  _378
REMARK  147  A    between atoms: _378  and  _379
REMARK  148  A    between atoms: _388  and  _390
REMARK  149  A    between atoms: _390  and  _391
REMARK  150  A    between atoms: _394  and  _396
REMARK  151  A    between atoms: _396  and  _397
REMARK  152  A    between atoms: _400  and  _402
REMARK  153  A    between atoms: _402  and  _403
REMARK  154  A    between atoms: _406  and  _408
REMARK  155  A    between atoms: _408  and  _409
REMARK  156  A    between atoms: _408  and  _411
REMARK  157  A    between atoms: _411  and  _412
REMARK  158  A    between atoms: _414  and  _416
REMARK  159  A    between atoms: _416  and  _417
REMARK  160  A    between atoms: _419  and  _421
REMARK  161  A    between atoms: _421  and  _422
REMARK  162  A    between atoms: _421  and  _424
REMARK  163  A    between atoms: _424  and  _425
REMARK  164  A    between atoms: _435  and  _437
REMARK  165  A    between atoms: _437  and  _438
REMARK  166  A    between atoms: _437  and  _440
REMARK  167  A    between atoms: _440  and  _441
REMARK  168  A    between atoms: _444  and  _446
REMARK  169  A    between atoms: _446  and  _447
REMARK  170  A    between atoms: _446  and  _449
REMARK  171  A    between atoms: _449  and  _450
REMARK  172  A    between atoms: _456  and  _458
REMARK  173  A    between atoms: _458  and  _459
REMARK  174  A    between atoms: _458  and  _461
REMARK  175  A    between atoms: _461  and  _462
REMARK  176  A    between atoms: _462  and  _463
REMARK  177  A    between atoms: _468  and  _470
REMARK  178  A    between atoms: _470  and  _471
REMARK  179  A    between atoms: _470  and  _473
REMARK  180  A    between atoms: _473  and  _474
REMARK  181  A    between atoms: _484  and  _486
REMARK  182  A    between atoms: _486  and  _487
REMARK  183  A    between atoms: _486  and  _489
REMARK  184  A    between atoms: _489  and  _490
REMARK  185  A    between atoms: _501  and  _502
REMARK  186  A    between atoms: _507  and  _509
REMARK  187  A    between atoms: _509  and  _510
REMARK  188  A    between atoms: _509  and  _512
REMARK  189  A    between atoms: _512  and  _513
REMARK  190  A    between atoms: _513  and  _514
REMARK  191  A    between atoms: _517  and  _519
REMARK  192  A    between atoms: _519  and  _520
REMARK  193  A    between atoms: _519  and  _522
REMARK  194  A    between atoms: _522  and  _523
REMARK  195  A    between atoms: _523  and  _524
REMARK  196  A    between atoms: _524  and  _525
REMARK  197  A    between atoms: _525  and  _526
REMARK  198  A    between atoms: _530  and  _532
REMARK  199  A    between atoms: _532  and  _533
REMARK  200  A    between atoms: _535  and  _537
REMARK  201  A    between atoms: _537  and  _538
REMARK  202  A    between atoms: _537  and  _540
REMARK  203  A    between atoms: _540  and  _541
REMARK  204  A    between atoms: _541  and  _542
REMARK  205  A    between atoms: _545  and  _547
REMARK  206  A    between atoms: _547  and  _548
REMARK  207  A    between atoms: _547  and  _550
REMARK  208  A    between atoms: _550  and  _551
REMARK  209  A    between atoms: _556  and  _557
REMARK  210  A    between atoms: _559  and  _561
REMARK  211  A    between atoms: _561  and  _562
REMARK  212  A    between atoms: _561  and  _564
REMARK  213  A    between atoms: _564  and  _565
REMARK  214  A    between atoms: _565  and  _566
REMARK  215  A    between atoms: _571  and  _573
REMARK  216  A    between atoms: _573  and  _574
REMARK  217  A    between atoms: _573  and  _576
REMARK  218  A    between atoms: _576  and  _577
REMARK  219  A    between atoms: _583  and  _585
REMARK  220  A    between atoms: _585  and  _586
REMARK  221  A    between atoms: _588  and  _590
REMARK  222  A    between atoms: _590  and  _591
REMARK  223  A    between atoms: _590  and  _593
REMARK  224  A    between atoms: _593  and  _594
REMARK  225  A    between atoms: _604  and  _606
REMARK  226  A    between atoms: _606  and  _607
REMARK  227  A    between atoms: _606  and  _609
REMARK  228  A    between atoms: _609  and  _610
REMARK                            x       y       z     vdW  Elec       q    Type
REMARK                         _______ _______ _______ _____ _____    ______ ____
ROOT
ATOM      1  C   GLU A   2      25.546  51.885   3.732  0.00  0.00    +0.241 C 
ATOM      2  N   TYR A   3      25.869  51.906   5.018  0.00  0.00    -0.298 N 
ATOM      3  H   TYR A   3      25.945  51.015   5.549  0.00  0.00    +0.150 HD
ATOM      4  O   GLU A   2      25.355  52.916   3.107  0.00  0.00    -0.273 OA
ENDROOT
BRANCH   1   5
ATOM      5  CA  GLU A   2      25.395  50.536   3.051  0.00  0.00    +0.149 C 
BRANCH   5   7
ATOM      6  C   GLY A   1      26.967  48.889   3.956  0.00  0.00    +0.240 C 
ATOM      7  N   GLU A   2      25.735  49.380   3.897  0.00  0.00    -0.297 N 
ATOM      8  H   GLU A   2      24.987  48.934   4.466  0.00  0.00    +0.150 HD
ATOM      9  O   GLY A   1      27.961  49.483   3.528  0.00  0.00    -0.274 OA
BRANCH   6  10
ATOM     10  CA  GLY A   1      27.082  47.509   4.569  0.00  0.00    +0.169 C 
BRANCH  10  11
ATOM     11  N   GLY A   1      28.408  47.110   5.004  0.00  0.00    -0.236 NA
ATOM     12  H   GLY A   1      28.958  46.441   4.428  0.00  0.00    +0.142 HD
ENDBRANCH  10  11
ENDBRANCH   6  10
ENDBRANCH   5   7
BRANCH   5  13
ATOM     13  CB  GLU A   2      23.964  50.432   2.523  0.00  0.00    +0.041 C 
BRANCH  13  14
ATOM     14  CG  GLU A   2      22.902  50.592   3.623  0.00  0.00    +0.116 C 
BRANCH  14  15
ATOM     15  CD  GLU A   2      21.509  50.203   3.209  0.00  0.00    +0.365 C 
ATOM     16  OE2 GLU A   2      20.587  50.436   4.024  0.00  0.00    -0.246 OA
ATOM     17  OE1 GLU A   2      21.293  49.745   2.072  0.00  0.00    -0.246 OA
ENDBRANCH  14  15
ENDBRANCH  13  14
ENDBRANCH   5  13
ENDBRANCH   1   5
BRANCH   2  18
ATOM     18  CA  TYR A   3      26.121  53.192   5.696  0.00  0.00    +0.141 C 
BRANCH  18  19
ATOM     19  C   TYR A   3      27.271  53.056   6.695  0.00  0.00    +0.227 C 
ATOM     20  O   TYR A   3      27.635  51.944   7.060  0.00  0.00    -0.286 OA
ENDBRANCH  18  19
BRANCH  18  21
ATOM     21  CB  TYR A   3      24.842  53.689   6.377  0.00  0.00    +0.054 C 
BRANCH  21  22
ATOM     22  CG  TYR A   3      24.335  52.741   7.448  0.00  0.00    -0.020 A 
ATOM     23  CD2 TYR A   3      24.847  52.804   8.743  0.00  0.00    -0.001 A 
ATOM     24  CE2 TYR A   3      24.415  51.948   9.728  0.00  0.00    +0.036 A 
ATOM     25  CZ  TYR A   3      23.444  51.012   9.440  0.00  0.00    +0.134 A 
ATOM     26  CE1 TYR A   3      22.867  50.955   8.174  0.00  0.00    +0.036 A 
ATOM     27  CD1 TYR A   3      23.327  51.821   7.179  0.00  0.00    -0.001 A 
BRANCH  25  28
ATOM     28  OH  TYR A   3      23.025  50.180  10.451  0.00  0.00    -0.506 OA
ATOM     29  HH  TYR A   3      23.549  50.367  11.270  0.00  0.00    +0.292 HD
ENDBRANCH  25  28
ENDBRANCH  21  22
ENDBRANCH  18  21
ENDBRANCH   2  18
TORSDOF 12
REMARK  Name = ../refined-set-2016/2jg0/2jg0_pocket.pdb
REMARK  228 active torsions:
REMARK  status: ('A' for Active; 'I' for Inactive)
REMARK    1  A    between atoms: _1  and  _3
REMARK    2  A    between atoms: _3  and  _4
REMARK    3  A    between atoms: _3  and  _6
REMARK    4  A    between atoms: _6  and  _7
REMARK    5  A    between atoms: _10  and  _12
REMARK    6  A    between atoms: _12  and  _13
REMARK    7  A    between atoms: _12  and  _15
REMARK    8  A    between atoms: _15  and  _16
REMARK    9  A    between atoms: _16  and  _17
REMARK   10  A    between atoms: _22  and  _24
REMARK   11  A    between atoms: _24  and  _25
REMARK   12  A    between atoms: _24  and  _27
REMARK   13  A    between atoms: _27  and  _28
REMARK   14  A    between atoms: _28  and  _29
REMARK   15  A    between atoms: _29  and  _30
REMARK   16  A    between atoms: _30  and  _31
REMARK   17  A    between atoms: _35  and  _37
REMARK   18  A    between atoms: _37  and  _38
REMARK   19  A    between atoms: _37  and  _40
REMARK   20  A    between atoms: _44  and  _45
REMARK   21  A    between atoms: _50  and  _52
REMARK   22  A    between atoms: _52  and  _53
REMARK   23  A    between atoms: _55  and  _57
REMARK   24  A    between atoms: _57  and  _58
REMARK   25  A    between atoms: _57  and  _60
REMARK   26  A    between atoms: _60  and  _61
REMARK   27  A    between atoms: _61  and  _62
REMARK   28  A    between atoms: _62  and  _63
REMARK   29  A    between atoms: _72  and  _74
REMARK   30  A    between atoms: _74  and  _75
REMARK   31  A    between atoms: _74  and  _77
REMARK   32  A    between atoms: _77  and  _78
REMARK   33  A    between atoms: _84  and  _86
REMARK   34  A    between atoms: _86  and  _87
REMARK   35  A    between atoms: _86  and  _89
REMARK   36  A    between atoms: _89  and  _90
REMARK   37  A    between atoms: _90  and  _91
REMARK   38  A    between atoms: _91  and  _92
REMARK   39  A    between atoms: _101  and  _103
REMARK   40  A    between atoms: _103  and  _104
REMARK   41  A    between atoms: _103  and  _106
REMARK   42  A    between atoms: _106  and  _107
REMARK   43  A    between atoms: _107  and  _108
REMARK   44  A    between atoms: _111  and  _113
REMARK   45  A    between atoms: _113  and  _114
REMARK   46  A    between atoms: _113  and  _116
REMARK   47  A    between atoms: _119  and  _121
REMARK   48  A    between atoms: _121  and  _122
REMARK   49  A    between atoms: _121  and  _124
REMARK   50  A    between atoms: _124  and  _125
REMARK   51  A    between atoms: _130  and  _131
REMARK   52  A    between atoms: _133  and  _135
REMARK   53  A    between atoms: _135  and  _136
REMARK   54  A    between atoms: _135  and  _138
REMARK   55  A    between atoms: _138  and  _139
REMARK   56  A    between atoms: _144  and  _145
REMARK   57  A    between atoms: _147  and  _149
REMARK   58  A    between atoms: _149  and  _150
REMARK   59  A    between atoms: _149  and  _152
REMARK   60  A    between atoms: _152  and  _153
REMARK   61  A    between atoms: _163  and  _165
REMARK   62  A    between atoms: _165  and  _166
REMARK   63  A    between atoms: _165  and  _168
REMARK   64  A    between atoms: _168  and  _169
REMARK   65  A    between atoms: _172  and  _174
REMARK   66  A    between atoms: _174  and  _175
REMARK   67  A    between atoms: _174  and  _177
REMARK   68  A    between atoms: _177  and  _178
REMARK   69  A    between atoms: _180  and  _182
REMARK   70  A    between atoms: _182  and  _183
REMARK   71  A    between atoms: _182  and  _185
REMARK   72  A    between atoms: _185  and  _186
REMARK   73  A    between atoms: _191  and  _193
REMARK   74  A    between atoms: _193  and  _194
REMARK   75  A    between atoms: _196  and  _198
REMARK   76  A    between atoms: _198  and  _199
REMARK   77  A    between atoms: _198  and  _201
REMARK   78  A    between atoms: _201  and  _202
REMARK   79  A    between atoms: _207  and  _208
REMARK   80  A    between atoms: _210  and  _212
REMARK   81  A    between atoms: _212  and  _213
REMARK   82  A    between atoms: _212  and  _215
REMARK   83  A    between atoms: _215  and  _216
REMARK   84  A    between atoms: _221  and  _222
REMARK   85  A    between atoms: _224  and  _226
REMARK   86  A    between atoms: _226  and  _227
REMARK   87  A    between atoms: _226  and  _229
REMARK   88  A    between atoms: _229  and  _230
REMARK   89  A    between atoms: _232  and  _234
REMARK   90  A    between atoms: _234  and  _235
REMARK   91  A    between atoms: _234  and  _237
REMARK   92  A    between atoms: _237  and  _238
REMARK   93  A    between atoms: _238  and  _239
REMARK   94  A    between atoms: _239  and  _240
REMARK   95  A    between atoms: _249  and  _251
REMARK   96  A    between atoms: _251  and  _252
REMARK   97  A    between atoms: _251  and  _254
REMARK   98  A    between atoms: _254  and  _255
REMARK   99  A    between atoms: _257  and  _259
REMARK  100  A    between atoms: _259  and  _260
REMARK  101  A    between atoms: _259  and  _262
REMARK  102  A    between atoms: _262  and  _263
REMARK  103  A    between atoms: _263  and  _264
REMARK  104  A    between atoms: _270  and  _271
REMARK  105  A    between atoms: _276  and  _278
REMARK  106  A    between atoms: _278  and  _279
REMARK  107  A    between atoms: _278  and  _281
REMARK  108  A    between atoms: _281  and  _282
REMARK  109  A    between atoms: _285  and  _287
REMARK  110  A    between atoms: _287  and  _288
REMARK  111  A    between atoms: _287  and  _290
REMARK  112  A    between atoms: _290  and  _291
REMARK  113  A    between atoms: _291  and  _292
REMARK  114  A    between atoms: _292  and  _293
REMARK  115  A    between atoms: _303  and  _304
REMARK  116  A    between atoms: _309  and  _311
REMARK  117  A    between atoms: _311  and  _312
REMARK  118  A    between atoms: _311  and  _314
REMARK  119  A    between atoms: _314  and  _315
REMARK  120  A    between atoms: _315  and  _316
REMARK  121  A    between atoms: _319  and  _321
REMARK  122  A    between atoms: _321  and  _322
REMARK  123  A    between atoms: _321  and  _324
REMARK  124  A    between atoms: _324  and  _325
REMARK  125  A    between atoms: _327  and  _329
REMARK  126  A    between atoms: _329  and  _330
REMARK  127  A    between atoms: _329  and  _332
REMARK  128  A    between atoms: _332  and  _333
REMARK  129  A    between atoms: _343  and  _345
REMARK  130  A    between atoms: _345  and  _346
REMARK  131  A    between atoms: _345  and  _348
REMARK  132  A    between atoms: _348  and  _349
REMARK  133  A    between atoms: _349  and  _350
REMARK  134  A    between atoms: _353  and  _355
REMARK  135  A    between atoms: _355  and  _356
REMARK  136  A    between atoms: _355  and  _358
REMARK  137  A    between atoms: _358  and  _359
REMARK  138  A    between atoms: _362  and  _364
REMARK  139  A    between atoms: _364  and  _365
REMARK  140  A    between atoms: _364  and  _367
REMARK  141  A    between atoms: _367  and  _368
REMARK  142  A    between atoms: _371  and  _373
REMARK  143  A    between atoms: _373  and  _374
REMARK  144  A    between atoms: _373  and  _376
REMARK  145  A    between atoms: _376  and  _377
REMARK  146  A    between atoms: _377  and  _378
REMARK  147  A    between atoms: _378  and  _379
REMARK  148  A    between atoms: _388  and  _390
REMARK  149  A    between atoms: _390  and  _391
REMARK  150  A    between atoms: _394  and  _396
REMARK  151  A    between atoms: _396  and  _397
REMARK  152  A    between atoms: _400  and  _402
REMARK  153  A    between atoms: _402  and  _403
REMARK  154  A    between atoms: _406  and  _408
REMARK  155  A    between atoms: _408  and  _409
REMARK  156  A    between atoms: _408  and  _411
REMARK  157  A    between atoms: _411  and  _412
REMARK  158  A    between atoms: _414  and  _416
REMARK  159  A    between atoms: _416  and  _417
REMARK  160  A    between atoms: _419  and  _421
REMARK  161  A    between atoms: _421  and  _422
REMARK  162  A    between atoms: _421  and  _424
REMARK  163  A    between atoms: _424  and  _425
REMARK  164  A    between atoms: _435  and  _437
REMARK  165  A    between atoms: _437  and  _438
REMARK  166  A    between atoms: _437  and  _440
REMARK  167  A    between atoms: _440  and  _441
REMARK  168  A    between atoms: _444  and  _446
REMARK  169  A    between atoms: _446  and  _447
REMARK  170  A    between atoms: _446  and  _449
REMARK  171  A    between atoms: _449  and  _450
REMARK  172  A    between atoms: _456  and  _458
REMARK  173  A    between atoms: _458  and  _459
REMARK  174  A    between atoms: _458  and  _461
REMARK  175  A    between atoms: _461  and  _462
REMARK  176  A    between atoms: _462  and  _463
REMARK  177  A    between atoms: _468  and  _470
REMARK  178  A    between atoms: _470  and  _471
REMARK  179  A    between atoms: _470  and  _473
REMARK  180  A    between atoms: _473  and  _474
REMARK  181  A    between atoms: _484  and  _486
REMARK  182  A    between atoms: _486  and  _487
REMARK  183  A    between atoms: _486  and  _489
REMARK  184  A    between atoms: _489  and  _490
REMARK  185  A    between atoms: _501  and  _502
REMARK  186  A    between atoms: _507  and  _509
REMARK  187  A    between atoms: _509  and  _510
REMARK  188  A    between atoms: _509  and  _512
REMARK  189  A    between atoms: _512  and  _513
REMARK  190  A    between atoms: _513  and  _514
REMARK  191  A    between atoms: _517  and  _519
REMARK  192  A    between atoms: _519  and  _520
REMARK  193  A    between atoms: _519  and  _522
REMARK  194  A    between atoms: _522  and  _523
REMARK  195  A    between atoms: _523  and  _524
REMARK  196  A    between atoms: _524  and  _525
REMARK  197  A    between atoms: _525  and  _526
REMARK  198  A    between atoms: _530  and  _532
REMARK  199  A    between atoms: _532  and  _533
REMARK  200  A    between atoms: _535  and  _537
REMARK  201  A    between atoms: _537  and  _538
REMARK  202  A    between atoms: _537  and  _540
REMARK  203  A    between atoms: _540  and  _541
REMARK  204  A    between atoms: _541  and  _542
REMARK  205  A    between atoms: _545  and  _547
REMARK  206  A    between atoms: _547  and  _548
REMARK  207  A    between atoms: _547  and  _550
REMARK  208  A    between atoms: _550  and  _551
REMARK  209  A    between atoms: _556  and  _557
REMARK  210  A    between atoms: _559  and  _561
REMARK  211  A    between atoms: _561  and  _562
REMARK  212  A    between atoms: _561  and  _564
REMARK  213  A    between atoms: _564  and  _565
REMARK  214  A    between atoms: _565  and  _566
REMARK  215  A    between atoms: _571  and  _573
REMARK  216  A    between atoms: _573  and  _574
REMARK  217  A    between atoms: _573  and  _576
REMARK  218  A    between atoms: _576  and  _577
REMARK  219  A    between atoms: _583  and  _585
REMARK  220  A    between atoms: _585  and  _586
REMARK  221  A    between atoms: _588  and  _590
REMARK  222  A    between atoms: _590  and  _591
REMARK  223  A    between atoms: _590  and  _593
REMARK  224  A    between atoms: _593  and  _594
REMARK  225  A    between atoms: _604  and  _606
REMARK  226  A    between atoms: _606  and  _607
REMARK  227  A    between atoms: _606  and  _609
REMARK  228  A    between atoms: _609  and  _610
REMARK                            x       y       z     vdW  Elec       q    Type
REMARK                         _______ _______ _______ _____ _____    ______ ____
ROOT
ATOM      1  CB  GLN A   1      25.593  54.925  13.684  0.00  0.00    +0.035 C 
ENDROOT
BRANCH   1   2
ATOM      2  CA  GLN A   1      27.122  55.039  13.829  0.00  0.00    +0.134 C 
BRANCH   2   3
ATOM      3  N   GLN A   1      27.766  53.968  13.095  0.00  0.00    -0.239 NA
ATOM      4  H   GLN A   1      27.395  53.000  13.173  0.00  0.00    +0.142 HD
ENDBRANCH   2   3
BRANCH   2   5
ATOM      5  C   GLN A   1      27.509  55.087  15.298  0.00  0.00    +0.224 C 
ATOM      6  O   GLN A   1      27.938  54.081  15.880  0.00  0.00    -0.287 OA
ENDBRANCH   2   5
ENDBRANCH   1   2
BRANCH   1   7
ATOM      7  CG  GLN A   1      25.117  55.010  12.239  0.00  0.00    +0.087 C 
BRANCH   7   8
ATOM      8  CD  GLN A   1      25.344  56.352  11.643  0.00  0.00    +0.219 C 
ATOM      9  OE1 GLN A   1      24.854  57.357  12.136  0.00  0.00    -0.275 OA
ATOM     10  NE2 GLN A   1      26.104  56.387  10.567  0.00  0.00    -0.329 N 
ATOM     11 HE21 GLN A   1      26.500  55.506  10.181  0.00  0.00    +0.145 HD
ATOM     12 HE22 GLN A   1      26.307  57.295  10.103  0.00  0.00    +0.145 HD
ENDBRANCH   7   8
ENDBRANCH   1   7
TORSDOF 5
REMARK  Name = ../refined-set-2016/2jg0/2jg0_pocket.pdb
REMARK  228 active torsions:
REMARK  status: ('A' for Active; 'I' for Inactive)
REMARK    1  A    between atoms: _1  and  _3
REMARK    2  A    between atoms: _3  and  _4
REMARK    3  A    between atoms: _3  and  _6
REMARK    4  A    between atoms: _6  and  _7
REMARK    5  A    between atoms: _10  and  _12
REMARK    6  A    between atoms: _12  and  _13
REMARK    7  A    between atoms: _12  and  _15
REMARK    8  A    between atoms: _15  and  _16
REMARK    9  A    between atoms: _16  and  _17
REMARK   10  A    between atoms: _22  and  _24
REMARK   11  A    between atoms: _24  and  _25
REMARK   12  A    between atoms: _24  and  _27
REMARK   13  A    between atoms: _27  and  _28
REMARK   14  A    between atoms: _28  and  _29
REMARK   15  A    between atoms: _29  and  _30
REMARK   16  A    between atoms: _30  and  _31
REMARK   17  A    between atoms: _35  and  _37
REMARK   18  A    between atoms: _37  and  _38
REMARK   19  A    between atoms: _37  and  _40
REMARK   20  A    between atoms: _44  and  _45
REMARK   21  A    between atoms: _50  and  _52
REMARK   22  A    between atoms: _52  and  _53
REMARK   23  A    between atoms: _55  and  _57
REMARK   24  A    between atoms: _57  and  _58
REMARK   25  A    between atoms: _57  and  _60
REMARK   26  A    between atoms: _60  and  _61
REMARK   27  A    between atoms: _61  and  _62
REMARK   28  A    between atoms: _62  and  _63
REMARK   29  A    between atoms: _72  and  _74
REMARK   30  A    between atoms: _74  and  _75
REMARK   31  A    between atoms: _74  and  _77
REMARK   32  A    between atoms: _77  and  _78
REMARK   33  A    between atoms: _84  and  _86
REMARK   34  A    between atoms: _86  and  _87
REMARK   35  A    between atoms: _86  and  _89
REMARK   36  A    between atoms: _89  and  _90
REMARK   37  A    between atoms: _90  and  _91
REMARK   38  A    between atoms: _91  and  _92
REMARK   39  A    between atoms: _101  and  _103
REMARK   40  A    between atoms: _103  and  _104
REMARK   41  A    between atoms: _103  and  _106
REMARK   42  A    between atoms: _106  and  _107
REMARK   43  A    between atoms: _107  and  _108
REMARK   44  A    between atoms: _111  and  _113
REMARK   45  A    between atoms: _113  and  _114
REMARK   46  A    between atoms: _113  and  _116
REMARK   47  A    between atoms: _119  and  _121
REMARK   48  A    between atoms: _121  and  _122
REMARK   49  A    between atoms: _121  and  _124
REMARK   50  A    between atoms: _124  and  _125
REMARK   51  A    between atoms: _130  and  _131
REMARK   52  A    between atoms: _133  and  _135
REMARK   53  A    between atoms: _135  and  _136
REMARK   54  A    between atoms: _135  and  _138
REMARK   55  A    between atoms: _138  and  _139
REMARK   56  A    between atoms: _144  and  _145
REMARK   57  A    between atoms: _147  and  _149
REMARK   58  A    between atoms: _149  and  _150
REMARK   59  A    between atoms: _149  and  _152
REMARK   60  A    between atoms: _152  and  _153
REMARK   61  A    between atoms: _163  and  _165
REMARK   62  A    between atoms: _165  and  _166
REMARK   63  A    between atoms: _165  and  _168
REMARK   64  A    between atoms: _168  and  _169
REMARK   65  A    between atoms: _172  and  _174
REMARK   66  A    between atoms: _174  and  _175
REMARK   67  A    between atoms: _174  and  _177
REMARK   68  A    between atoms: _177  and  _178
REMARK   69  A    between atoms: _180  and  _182
REMARK   70  A    between atoms: _182  and  _183
REMARK   71  A    between atoms: _182  and  _185
REMARK   72  A    between atoms: _185  and  _186
REMARK   73  A    between atoms: _191  and  _193
REMARK   74  A    between atoms: _193  and  _194
REMARK   75  A    between atoms: _196  and  _198
REMARK   76  A    between atoms: _198  and  _199
REMARK   77  A    between atoms: _198  and  _201
REMARK   78  A    between atoms: _201  and  _202
REMARK   79  A    between atoms: _207  and  _208
REMARK   80  A    between atoms: _210  and  _212
REMARK   81  A    between atoms: _212  and  _213
REMARK   82  A    between atoms: _212  and  _215
REMARK   83  A    between atoms: _215  and  _216
REMARK   84  A    between atoms: _221  and  _222
REMARK   85  A    between atoms: _224  and  _226
REMARK   86  A    between atoms: _226  and  _227
REMARK   87  A    between atoms: _226  and  _229
REMARK   88  A    between atoms: _229  and  _230
REMARK   89  A    between atoms: _232  and  _234
REMARK   90  A    between atoms: _234  and  _235
REMARK   91  A    between atoms: _234  and  _237
REMARK   92  A    between atoms: _237  and  _238
REMARK   93  A    between atoms: _238  and  _239
REMARK   94  A    between atoms: _239  and  _240
REMARK   95  A    between atoms: _249  and  _251
REMARK   96  A    between atoms: _251  and  _252
REMARK   97  A    between atoms: _251  and  _254
REMARK   98  A    between atoms: _254  and  _255
REMARK   99  A    between atoms: _257  and  _259
REMARK  100  A    between atoms: _259  and  _260
REMARK  101  A    between atoms: _259  and  _262
REMARK  102  A    between atoms: _262  and  _263
REMARK  103  A    between atoms: _263  and  _264
REMARK  104  A    between atoms: _270  and  _271
REMARK  105  A    between atoms: _276  and  _278
REMARK  106  A    between atoms: _278  and  _279
REMARK  107  A    between atoms: _278  and  _281
REMARK  108  A    between atoms: _281  and  _282
REMARK  109  A    between atoms: _285  and  _287
REMARK  110  A    between atoms: _287  and  _288
REMARK  111  A    between atoms: _287  and  _290
REMARK  112  A    between atoms: _290  and  _291
REMARK  113  A    between atoms: _291  and  _292
REMARK  114  A    between atoms: _292  and  _293
REMARK  115  A    between atoms: _303  and  _304
REMARK  116  A    between atoms: _309  and  _311
REMARK  117  A    between atoms: _311  and  _312
REMARK  118  A    between atoms: _311  and  _314
REMARK  119  A    between atoms: _314  and  _315
REMARK  120  A    between atoms: _315  and  _316
REMARK  121  A    between atoms: _319  and  _321
REMARK  122  A    between atoms: _321  and  _322
REMARK  123  A    between atoms: _321  and  _324
REMARK  124  A    between atoms: _324  and  _325
REMARK  125  A    between atoms: _327  and  _329
REMARK  126  A    between atoms: _329  and  _330
REMARK  127  A    between atoms: _329  and  _332
REMARK  128  A    between atoms: _332  and  _333
REMARK  129  A    between atoms: _343  and  _345
REMARK  130  A    between atoms: _345  and  _346
REMARK  131  A    between atoms: _345  and  _348
REMARK  132  A    between atoms: _348  and  _349
REMARK  133  A    between atoms: _349  and  _350
REMARK  134  A    between atoms: _353  and  _355
REMARK  135  A    between atoms: _355  and  _356
REMARK  136  A    between atoms: _355  and  _358
REMARK  137  A    between atoms: _358  and  _359
REMARK  138  A    between atoms: _362  and  _364
REMARK  139  A    between atoms: _364  and  _365
REMARK  140  A    between atoms: _364  and  _367
REMARK  141  A    between atoms: _367  and  _368
REMARK  142  A    between atoms: _371  and  _373
REMARK  143  A    between atoms: _373  and  _374
REMARK  144  A    between atoms: _373  and  _376
REMARK  145  A    between atoms: _376  and  _377
REMARK  146  A    between atoms: _377  and  _378
REMARK  147  A    between atoms: _378  and  _379
REMARK  148  A    between atoms: _388  and  _390
REMARK  149  A    between atoms: _390  and  _391
REMARK  150  A    between atoms: _394  and  _396
REMARK  151  A    between atoms: _396  and  _397
REMARK  152  A    between atoms: _400  and  _402
REMARK  153  A    between atoms: _402  and  _403
REMARK  154  A    between atoms: _406  and  _408
REMARK  155  A    between atoms: _408  and  _409
REMARK  156  A    between atoms: _408  and  _411
REMARK  157  A    between atoms: _411  and  _412
REMARK  158  A    between atoms: _414  and  _416
REMARK  159  A    between atoms: _416  and  _417
REMARK  160  A    between atoms: _419  and  _421
REMARK  161  A    between atoms: _421  and  _422
REMARK  162  A    between atoms: _421  and  _424
REMARK  163  A    between atoms: _424  and  _425
REMARK  164  A    between atoms: _435  and  _437
REMARK  165  A    between atoms: _437  and  _438
REMARK  166  A    between atoms: _437  and  _440
REMARK  167  A    between atoms: _440  and  _441
REMARK  168  A    between atoms: _444  and  _446
REMARK  169  A    between atoms: _446  and  _447
REMARK  170  A    between atoms: _446  and  _449
REMARK  171  A    between atoms: _449  and  _450
REMARK  172  A    between atoms: _456  and  _458
REMARK  173  A    between atoms: _458  and  _459
REMARK  174  A    between atoms: _458  and  _461
REMARK  175  A    between atoms: _461  and  _462
REMARK  176  A    between atoms: _462  and  _463
REMARK  177  A    between atoms: _468  and  _470
REMARK  178  A    between atoms: _470  and  _471
REMARK  179  A    between atoms: _470  and  _473
REMARK  180  A    between atoms: _473  and  _474
REMARK  181  A    between atoms: _484  and  _486
REMARK  182  A    between atoms: _486  and  _487
REMARK  183  A    between atoms: _486  and  _489
REMARK  184  A    between atoms: _489  and  _490
REMARK  185  A    between atoms: _501  and  _502
REMARK  186  A    between atoms: _507  and  _509
REMARK  187  A    between atoms: _509  and  _510
REMARK  188  A    between atoms: _509  and  _512
REMARK  189  A    between atoms: _512  and  _513
REMARK  190  A    between atoms: _513  and  _514
REMARK  191  A    between atoms: _517  and  _519
REMARK  192  A    between atoms: _519  and  _520
REMARK  193  A    between atoms: _519  and  _522
REMARK  194  A    between atoms: _522  and  _523
REMARK  195  A    between atoms: _523  and  _524
REMARK  196  A    between atoms: _524  and  _525
REMARK  197  A    between atoms: _525  and  _526
REMARK  198  A    between atoms: _530  and  _532
REMARK  199  A    between atoms: _532  and  _533
REMARK  200  A    between atoms: _535  and  _537
REMARK  201  A    between atoms: _537  and  _538
REMARK  202  A    between atoms: _537  and  _540
REMARK  203  A    between atoms: _540  and  _541
REMARK  204  A    between atoms: _541  and  _542
REMARK  205  A    between atoms: _545  and  _547
REMARK  206  A    between atoms: _547  and  _548
REMARK  207  A    between atoms: _547  and  _550
REMARK  208  A    between atoms: _550  and  _551
REMARK  209  A    between atoms: _556  and  _557
REMARK  210  A    between atoms: _559  and  _561
REMARK  211  A    between atoms: _561  and  _562
REMARK  212  A    between atoms: _561  and  _564
REMARK  213  A    between atoms: _564  and  _565
REMARK  214  A    between atoms: _565  and  _566
REMARK  215  A    between atoms: _571  and  _573
REMARK  216  A    between atoms: _573  and  _574
REMARK  217  A    between atoms: _573  and  _576
REMARK  218  A    between atoms: _576  and  _577
REMARK  219  A    between atoms: _583  and  _585
REMARK  220  A    between atoms: _585  and  _586
REMARK  221  A    between atoms: _588  and  _590
REMARK  222  A    between atoms: _590  and  _591
REMARK  223  A    between atoms: _590  and  _593
REMARK  224  A    between atoms: _593  and  _594
REMARK  225  A    between atoms: _604  and  _606
REMARK  226  A    between atoms: _606  and  _607
REMARK  227  A    between atoms: _606  and  _609
REMARK  228  A    between atoms: _609  and  _610
REMARK                            x       y       z     vdW  Elec       q    Type
REMARK                         _______ _______ _______ _____ _____    ______ ____
ROOT
ATOM      1  CA  TRP A   3      21.528  49.213  22.545  0.00  0.00    +0.153 C 
ENDROOT
BRANCH   1   4
ATOM      2  C   GLY A   2      21.518  51.612  22.823  0.00  0.00    +0.243 C 
ATOM      3  O   GLY A   2      21.704  51.461  24.027  0.00  0.00    -0.273 OA
ATOM      4  N   TRP A   3      21.457  50.576  21.990  0.00  0.00    -0.297 N 
ATOM      5  H   TRP A   3      21.361  50.726  20.965  0.00  0.00    +0.150 HD
BRANCH   2   6
ATOM      6  CA  GLY A   2      21.295  52.997  22.255  0.00  0.00    +0.176 C 
BRANCH   6   9
ATOM      7  C   PHE A   1      23.617  53.214  21.477  0.00  0.00    +0.239 C 
ATOM      8  O   PHE A   1      24.029  52.321  22.201  0.00  0.00    -0.274 OA
ATOM      9  N   GLY A   2      22.329  53.515  21.368  0.00  0.00    -0.296 N 
ATOM     10  H   GLY A   2      22.040  54.159  20.604  0.00  0.00    +0.150 HD
BRANCH   7  11
ATOM     11  CA  PHE A   1      24.592  54.069  20.688  0.00  0.00    +0.149 C 
BRANCH  11  12
ATOM     12  N   PHE A   1      25.500  54.631  21.664  0.00  0.00    -0.238 NA
ATOM     13  H   PHE A   1      25.834  53.994  22.416  0.00  0.00    +0.142 HD
ENDBRANCH  11  12
BRANCH  11  14
ATOM     14  CB  PHE A   1      25.310  53.203  19.665  0.00  0.00    +0.053 C 
BRANCH  14  15
ATOM     15  CG  PHE A   1      24.422  52.845  18.482  0.00  0.00    -0.020 A 
ATOM     16  CD2 PHE A   1      23.686  51.659  18.468  0.00  0.00    -0.004 A 
ATOM     17  CE2 PHE A   1      22.856  51.341  17.418  0.00  0.00    -0.000 A 
ATOM     18  CZ  PHE A   1      22.732  52.221  16.362  0.00  0.00    -0.000 A 
ATOM     19  CE1 PHE A   1      23.446  53.421  16.375  0.00  0.00    -0.000 A 
ATOM     20  CD1 PHE A   1      24.285  53.727  17.427  0.00  0.00    -0.004 A 
ENDBRANCH  14  15
ENDBRANCH  11  14
ENDBRANCH   7  11
ENDBRANCH   6   9
ENDBRANCH   2   6
ENDBRANCH   1   4
BRANCH   1  21
ATOM     21  C   TRP A   3      22.911  48.840  23.045  0.00  0.00    +0.241 C 
ATOM     22  O   TRP A   3      23.020  47.987  23.911  0.00  0.00    -0.273 OA
ATOM     23  N   THR A   4      23.955  49.487  22.524  0.00  0.00    -0.296 N 
ATOM     24  H   THR A   4      23.820  50.160  21.742  0.00  0.00    +0.150 HD
BRANCH  23  25
ATOM     25  CA  THR A   4      25.300  49.239  23.067  0.00  0.00    +0.164 C 
BRANCH  25  26
ATOM     26  C   THR A   4      25.361  49.761  24.504  0.00  0.00    +0.229 C 
ATOM     27  O   THR A   4      25.813  49.102  25.432  0.00  0.00    -0.286 OA
ENDBRANCH  25  26
BRANCH  25  28
ATOM     28  CB  THR A   4      26.358  49.920  22.201  0.00  0.00    +0.136 C 
ATOM     29  CG2 THR A   4      27.741  49.648  22.757  0.00  0.00    +0.034 C 
BRANCH  28  30
ATOM     30  OG1 THR A   4      26.236  49.414  20.870  0.00  0.00    -0.382 OA
ATOM     31  HG1 THR A   4      26.915  49.844  20.291  0.00  0.00    +0.210 HD
ENDBRANCH  28  30
ENDBRANCH  25  28
ENDBRANCH  23  25
ENDBRANCH   1  21
BRANCH   1  32
ATOM     32  CB  TRP A   3      21.053  48.107  21.610  0.00  0.00    +0.057 C 
BRANCH  32  33
ATOM     33  CG  TRP A   3      21.617  47.973  20.244  0.00  0.00    -0.002 A 
ATOM     34  CD1 TRP A   3      22.851  48.332  19.756  0.00  0.00    +0.068 A 
ATOM     35  NE1 TRP A   3      22.961  47.948  18.411  0.00  0.00    -0.352 N 
ATOM     36  CE2 TRP A   3      21.789  47.305  18.067  0.00  0.00    +0.056 A 
ATOM     37  CZ2 TRP A   3      21.381  46.727  16.860  0.00  0.00    +0.017 A 
ATOM     38  CH2 TRP A   3      20.159  46.096  16.826  0.00  0.00    +0.001 A 
ATOM     39  CZ3 TRP A   3      19.336  46.060  17.928  0.00  0.00    +0.000 A 
ATOM     40  CE3 TRP A   3      19.738  46.618  19.122  0.00  0.00    +0.001 A 
ATOM     41  HE1 TRP A   3      23.776  48.117  17.788  0.00  0.00    +0.166 HD
ATOM     42  CD2 TRP A   3      20.969  47.270  19.203  0.00  0.00    +0.013 A 
ENDBRANCH  32  33
ENDBRANCH   1  32
TORSDOF 14
REMARK  Name = ../refined-set-2016/2jg0/2jg0_pocket.pdb
REMARK  228 active torsions:
REMARK  status: ('A' for Active; 'I' for Inactive)
REMARK    1  A    between atoms: _1  and  _3
REMARK    2  A    between atoms: _3  and  _4
REMARK    3  A    between atoms: _3  and  _6
REMARK    4  A    between atoms: _6  and  _7
REMARK    5  A    between atoms: _10  and  _12
REMARK    6  A    between atoms: _12  and  _13
REMARK    7  A    between atoms: _12  and  _15
REMARK    8  A    between atoms: _15  and  _16
REMARK    9  A    between atoms: _16  and  _17
REMARK   10  A    between atoms: _22  and  _24
REMARK   11  A    between atoms: _24  and  _25
REMARK   12  A    between atoms: _24  and  _27
REMARK   13  A    between atoms: _27  and  _28
REMARK   14  A    between atoms: _28  and  _29
REMARK   15  A    between atoms: _29  and  _30
REMARK   16  A    between atoms: _30  and  _31
REMARK   17  A    between atoms: _35  and  _37
REMARK   18  A    between atoms: _37  and  _38
REMARK   19  A    between atoms: _37  and  _40
REMARK   20  A    between atoms: _44  and  _45
REMARK   21  A    between atoms: _50  and  _52
REMARK   22  A    between atoms: _52  and  _53
REMARK   23  A    between atoms: _55  and  _57
REMARK   24  A    between atoms: _57  and  _58
REMARK   25  A    between atoms: _57  and  _60
REMARK   26  A    between atoms: _60  and  _61
REMARK   27  A    between atoms: _61  and  _62
REMARK   28  A    between atoms: _62  and  _63
REMARK   29  A    between atoms: _72  and  _74
REMARK   30  A    between atoms: _74  and  _75
REMARK   31  A    between atoms: _74  and  _77
REMARK   32  A    between atoms: _77  and  _78
REMARK   33  A    between atoms: _84  and  _86
REMARK   34  A    between atoms: _86  and  _87
REMARK   35  A    between atoms: _86  and  _89
REMARK   36  A    between atoms: _89  and  _90
REMARK   37  A    between atoms: _90  and  _91
REMARK   38  A    between atoms: _91  and  _92
REMARK   39  A    between atoms: _101  and  _103
REMARK   40  A    between atoms: _103  and  _104
REMARK   41  A    between atoms: _103  and  _106
REMARK   42  A    between atoms: _106  and  _107
REMARK   43  A    between atoms: _107  and  _108
REMARK   44  A    between atoms: _111  and  _113
REMARK   45  A    between atoms: _113  and  _114
REMARK   46  A    between atoms: _113  and  _116
REMARK   47  A    between atoms: _119  and  _121
REMARK   48  A    between atoms: _121  and  _122
REMARK   49  A    between atoms: _121  and  _124
REMARK   50  A    between atoms: _124  and  _125
REMARK   51  A    between atoms: _130  and  _131
REMARK   52  A    between atoms: _133  and  _135
REMARK   53  A    between atoms: _135  and  _136
REMARK   54  A    between atoms: _135  and  _138
REMARK   55  A    between atoms: _138  and  _139
REMARK   56  A    between atoms: _144  and  _145
REMARK   57  A    between atoms: _147  and  _149
REMARK   58  A    between atoms: _149  and  _150
REMARK   59  A    between atoms: _149  and  _152
REMARK   60  A    between atoms: _152  and  _153
REMARK   61  A    between atoms: _163  and  _165
REMARK   62  A    between atoms: _165  and  _166
REMARK   63  A    between atoms: _165  and  _168
REMARK   64  A    between atoms: _168  and  _169
REMARK   65  A    between atoms: _172  and  _174
REMARK   66  A    between atoms: _174  and  _175
REMARK   67  A    between atoms: _174  and  _177
REMARK   68  A    between atoms: _177  and  _178
REMARK   69  A    between atoms: _180  and  _182
REMARK   70  A    between atoms: _182  and  _183
REMARK   71  A    between atoms: _182  and  _185
REMARK   72  A    between atoms: _185  and  _186
REMARK   73  A    between atoms: _191  and  _193
REMARK   74  A    between atoms: _193  and  _194
REMARK   75  A    between atoms: _196  and  _198
REMARK   76  A    between atoms: _198  and  _199
REMARK   77  A    between atoms: _198  and  _201
REMARK   78  A    between atoms: _201  and  _202
REMARK   79  A    between atoms: _207  and  _208
REMARK   80  A    between atoms: _210  and  _212
REMARK   81  A    between atoms: _212  and  _213
REMARK   82  A    between atoms: _212  and  _215
REMARK   83  A    between atoms: _215  and  _216
REMARK   84  A    between atoms: _221  and  _222
REMARK   85  A    between atoms: _224  and  _226
REMARK   86  A    between atoms: _226  and  _227
REMARK   87  A    between atoms: _226  and  _229
REMARK   88  A    between atoms: _229  and  _230
REMARK   89  A    between atoms: _232  and  _234
REMARK   90  A    between atoms: _234  and  _235
REMARK   91  A    between atoms: _234  and  _237
REMARK   92  A    between atoms: _237  and  _238
REMARK   93  A    between atoms: _238  and  _239
REMARK   94  A    between atoms: _239  and  _240
REMARK   95  A    between atoms: _249  and  _251
REMARK   96  A    between atoms: _251  and  _252
REMARK   97  A    between atoms: _251  and  _254
REMARK   98  A    between atoms: _254  and  _255
REMARK   99  A    between atoms: _257  and  _259
REMARK  100  A    between atoms: _259  and  _260
REMARK  101  A    between atoms: _259  and  _262
REMARK  102  A    between atoms: _262  and  _263
REMARK  103  A    between atoms: _263  and  _264
REMARK  104  A    between atoms: _270  and  _271
REMARK  105  A    between atoms: _276  and  _278
REMARK  106  A    between atoms: _278  and  _279
REMARK  107  A    between atoms: _278  and  _281
REMARK  108  A    between atoms: _281  and  _282
REMARK  109  A    between atoms: _285  and  _287
REMARK  110  A    between atoms: _287  and  _288
REMARK  111  A    between atoms: _287  and  _290
REMARK  112  A    between atoms: _290  and  _291
REMARK  113  A    between atoms: _291  and  _292
REMARK  114  A    between atoms: _292  and  _293
REMARK  115  A    between atoms: _303  and  _304
REMARK  116  A    between atoms: _309  and  _311
REMARK  117  A    between atoms: _311  and  _312
REMARK  118  A    between atoms: _311  and  _314
REMARK  119  A    between atoms: _314  and  _315
REMARK  120  A    between atoms: _315  and  _316
REMARK  121  A    between atoms: _319  and  _321
REMARK  122  A    between atoms: _321  and  _322
REMARK  123  A    between atoms: _321  and  _324
REMARK  124  A    between atoms: _324  and  _325
REMARK  125  A    between atoms: _327  and  _329
REMARK  126  A    between atoms: _329  and  _330
REMARK  127  A    between atoms: _329  and  _332
REMARK  128  A    between atoms: _332  and  _333
REMARK  129  A    between atoms: _343  and  _345
REMARK  130  A    between atoms: _345  and  _346
REMARK  131  A    between atoms: _345  and  _348
REMARK  132  A    between atoms: _348  and  _349
REMARK  133  A    between atoms: _349  and  _350
REMARK  134  A    between atoms: _353  and  _355
REMARK  135  A    between atoms: _355  and  _356
REMARK  136  A    between atoms: _355  and  _358
REMARK  137  A    between atoms: _358  and  _359
REMARK  138  A    between atoms: _362  and  _364
REMARK  139  A    between atoms: _364  and  _365
REMARK  140  A    between atoms: _364  and  _367
REMARK  141  A    between atoms: _367  and  _368
REMARK  142  A    between atoms: _371  and  _373
REMARK  143  A    between atoms: _373  and  _374
REMARK  144  A    between atoms: _373  and  _376
REMARK  145  A    between atoms: _376  and  _377
REMARK  146  A    between atoms: _377  and  _378
REMARK  147  A    between atoms: _378  and  _379
REMARK  148  A    between atoms: _388  and  _390
REMARK  149  A    between atoms: _390  and  _391
REMARK  150  A    between atoms: _394  and  _396
REMARK  151  A    between atoms: _396  and  _397
REMARK  152  A    between atoms: _400  and  _402
REMARK  153  A    between atoms: _402  and  _403
REMARK  154  A    between atoms: _406  and  _408
REMARK  155  A    between atoms: _408  and  _409
REMARK  156  A    between atoms: _408  and  _411
REMARK  157  A    between atoms: _411  and  _412
REMARK  158  A    between atoms: _414  and  _416
REMARK  159  A    between atoms: _416  and  _417
REMARK  160  A    between atoms: _419  and  _421
REMARK  161  A    between atoms: _421  and  _422
REMARK  162  A    between atoms: _421  and  _424
REMARK  163  A    between atoms: _424  and  _425
REMARK  164  A    between atoms: _435  and  _437
REMARK  165  A    between atoms: _437  and  _438
REMARK  166  A    between atoms: _437  and  _440
REMARK  167  A    between atoms: _440  and  _441
REMARK  168  A    between atoms: _444  and  _446
REMARK  169  A    between atoms: _446  and  _447
REMARK  170  A    between atoms: _446  and  _449
REMARK  171  A    between atoms: _449  and  _450
REMARK  172  A    between atoms: _456  and  _458
REMARK  173  A    between atoms: _458  and  _459
REMARK  174  A    between atoms: _458  and  _461
REMARK  175  A    between atoms: _461  and  _462
REMARK  176  A    between atoms: _462  and  _463
REMARK  177  A    between atoms: _468  and  _470
REMARK  178  A    between atoms: _470  and  _471
REMARK  179  A    between atoms: _470  and  _473
REMARK  180  A    between atoms: _473  and  _474
REMARK  181  A    between atoms: _484  and  _486
REMARK  182  A    between atoms: _486  and  _487
REMARK  183  A    between atoms: _486  and  _489
REMARK  184  A    between atoms: _489  and  _490
REMARK  185  A    between atoms: _501  and  _502
REMARK  186  A    between atoms: _507  and  _509
REMARK  187  A    between atoms: _509  and  _510
REMARK  188  A    between atoms: _509  and  _512
REMARK  189  A    between atoms: _512  and  _513
REMARK  190  A    between atoms: _513  and  _514
REMARK  191  A    between atoms: _517  and  _519
REMARK  192  A    between atoms: _519  and  _520
REMARK  193  A    between atoms: _519  and  _522
REMARK  194  A    between atoms: _522  and  _523
REMARK  195  A    between atoms: _523  and  _524
REMARK  196  A    between atoms: _524  and  _525
REMARK  197  A    between atoms: _525  and  _526
REMARK  198  A    between atoms: _530  and  _532
REMARK  199  A    between atoms: _532  and  _533
REMARK  200  A    between atoms: _535  and  _537
REMARK  201  A    between atoms: _537  and  _538
REMARK  202  A    between atoms: _537  and  _540
REMARK  203  A    between atoms: _540  and  _541
REMARK  204  A    between atoms: _541  and  _542
REMARK  205  A    between atoms: _545  and  _547
REMARK  206  A    between atoms: _547  and  _548
REMARK  207  A    between atoms: _547  and  _550
REMARK  208  A    between atoms: _550  and  _551
REMARK  209  A    between atoms: _556  and  _557
REMARK  210  A    between atoms: _559  and  _561
REMARK  211  A    between atoms: _561  and  _562
REMARK  212  A    between atoms: _561  and  _564
REMARK  213  A    between atoms: _564  and  _565
REMARK  214  A    between atoms: _565  and  _566
REMARK  215  A    between atoms: _571  and  _573
REMARK  216  A    between atoms: _573  and  _574
REMARK  217  A    between atoms: _573  and  _576
REMARK  218  A    between atoms: _576  and  _577
REMARK  219  A    between atoms: _583  and  _585
REMARK  220  A    between atoms: _585  and  _586
REMARK  221  A    between atoms: _588  and  _590
REMARK  222  A    between atoms: _590  and  _591
REMARK  223  A    between atoms: _590  and  _593
REMARK  224  A    between atoms: _593  and  _594
REMARK  225  A    between atoms: _604  and  _606
REMARK  226  A    between atoms: _606  and  _607
REMARK  227  A    between atoms: _606  and  _609
REMARK  228  A    between atoms: _609  and  _610
REMARK                            x       y       z     vdW  Elec       q    Type
REMARK                         _______ _______ _______ _____ _____    ______ ____
ROOT
ATOM      1  O   HOH     1      15.275  53.242  19.958  0.00  0.00    +0.000 OA
ENDROOT
TORSDOF 0
REMARK  Name = ../refined-set-2016/2jg0/2jg0_pocket.pdb
REMARK  228 active torsions:
REMARK  status: ('A' for Active; 'I' for Inactive)
REMARK    1  A    between atoms: _1  and  _3
REMARK    2  A    between atoms: _3  and  _4
REMARK    3  A    between atoms: _3  and  _6
REMARK    4  A    between atoms: _6  and  _7
REMARK    5  A    between atoms: _10  and  _12
REMARK    6  A    between atoms: _12  and  _13
REMARK    7  A    between atoms: _12  and  _15
REMARK    8  A    between atoms: _15  and  _16
REMARK    9  A    between atoms: _16  and  _17
REMARK   10  A    between atoms: _22  and  _24
REMARK   11  A    between atoms: _24  and  _25
REMARK   12  A    between atoms: _24  and  _27
REMARK   13  A    between atoms: _27  and  _28
REMARK   14  A    between atoms: _28  and  _29
REMARK   15  A    between atoms: _29  and  _30
REMARK   16  A    between atoms: _30  and  _31
REMARK   17  A    between atoms: _35  and  _37
REMARK   18  A    between atoms: _37  and  _38
REMARK   19  A    between atoms: _37  and  _40
REMARK   20  A    between atoms: _44  and  _45
REMARK   21  A    between atoms: _50  and  _52
REMARK   22  A    between atoms: _52  and  _53
REMARK   23  A    between atoms: _55  and  _57
REMARK   24  A    between atoms: _57  and  _58
REMARK   25  A    between atoms: _57  and  _60
REMARK   26  A    between atoms: _60  and  _61
REMARK   27  A    between atoms: _61  and  _62
REMARK   28  A    between atoms: _62  and  _63
REMARK   29  A    between atoms: _72  and  _74
REMARK   30  A    between atoms: _74  and  _75
REMARK   31  A    between atoms: _74  and  _77
REMARK   32  A    between atoms: _77  and  _78
REMARK   33  A    between atoms: _84  and  _86
REMARK   34  A    between atoms: _86  and  _87
REMARK   35  A    between atoms: _86  and  _89
REMARK   36  A    between atoms: _89  and  _90
REMARK   37  A    between atoms: _90  and  _91
REMARK   38  A    between atoms: _91  and  _92
REMARK   39  A    between atoms: _101  and  _103
REMARK   40  A    between atoms: _103  and  _104
REMARK   41  A    between atoms: _103  and  _106
REMARK   42  A    between atoms: _106  and  _107
REMARK   43  A    between atoms: _107  and  _108
REMARK   44  A    between atoms: _111  and  _113
REMARK   45  A    between atoms: _113  and  _114
REMARK   46  A    between atoms: _113  and  _116
REMARK   47  A    between atoms: _119  and  _121
REMARK   48  A    between atoms: _121  and  _122
REMARK   49  A    between atoms: _121  and  _124
REMARK   50  A    between atoms: _124  and  _125
REMARK   51  A    between atoms: _130  and  _131
REMARK   52  A    between atoms: _133  and  _135
REMARK   53  A    between atoms: _135  and  _136
REMARK   54  A    between atoms: _135  and  _138
REMARK   55  A    between atoms: _138  and  _139
REMARK   56  A    between atoms: _144  and  _145
REMARK   57  A    between atoms: _147  and  _149
REMARK   58  A    between atoms: _149  and  _150
REMARK   59  A    between atoms: _149  and  _152
REMARK   60  A    between atoms: _152  and  _153
REMARK   61  A    between atoms: _163  and  _165
REMARK   62  A    between atoms: _165  and  _166
REMARK   63  A    between atoms: _165  and  _168
REMARK   64  A    between atoms: _168  and  _169
REMARK   65  A    between atoms: _172  and  _174
REMARK   66  A    between atoms: _174  and  _175
REMARK   67  A    between atoms: _174  and  _177
REMARK   68  A    between atoms: _177  and  _178
REMARK   69  A    between atoms: _180  and  _182
REMARK   70  A    between atoms: _182  and  _183
REMARK   71  A    between atoms: _182  and  _185
REMARK   72  A    between atoms: _185  and  _186
REMARK   73  A    between atoms: _191  and  _193
REMARK   74  A    between atoms: _193  and  _194
REMARK   75  A    between atoms: _196  and  _198
REMARK   76  A    between atoms: _198  and  _199
REMARK   77  A    between atoms: _198  and  _201
REMARK   78  A    between atoms: _201  and  _202
REMARK   79  A    between atoms: _207  and  _208
REMARK   80  A    between atoms: _210  and  _212
REMARK   81  A    between atoms: _212  and  _213
REMARK   82  A    between atoms: _212  and  _215
REMARK   83  A    between atoms: _215  and  _216
REMARK   84  A    between atoms: _221  and  _222
REMARK   85  A    between atoms: _224  and  _226
REMARK   86  A    between atoms: _226  and  _227
REMARK   87  A    between atoms: _226  and  _229
REMARK   88  A    between atoms: _229  and  _230
REMARK   89  A    between atoms: _232  and  _234
REMARK   90  A    between atoms: _234  and  _235
REMARK   91  A    between atoms: _234  and  _237
REMARK   92  A    between atoms: _237  and  _238
REMARK   93  A    between atoms: _238  and  _239
REMARK   94  A    between atoms: _239  and  _240
REMARK   95  A    between atoms: _249  and  _251
REMARK   96  A    between atoms: _251  and  _252
REMARK   97  A    between atoms: _251  and  _254
REMARK   98  A    between atoms: _254  and  _255
REMARK   99  A    between atoms: _257  and  _259
REMARK  100  A    between atoms: _259  and  _260
REMARK  101  A    between atoms: _259  and  _262
REMARK  102  A    between atoms: _262  and  _263
REMARK  103  A    between atoms: _263  and  _264
REMARK  104  A    between atoms: _270  and  _271
REMARK  105  A    between atoms: _276  and  _278
REMARK  106  A    between atoms: _278  and  _279
REMARK  107  A    between atoms: _278  and  _281
REMARK  108  A    between atoms: _281  and  _282
REMARK  109  A    between atoms: _285  and  _287
REMARK  110  A    between atoms: _287  and  _288
REMARK  111  A    between atoms: _287  and  _290
REMARK  112  A    between atoms: _290  and  _291
REMARK  113  A    between atoms: _291  and  _292
REMARK  114  A    between atoms: _292  and  _293
REMARK  115  A    between atoms: _303  and  _304
REMARK  116  A    between atoms: _309  and  _311
REMARK  117  A    between atoms: _311  and  _312
REMARK  118  A    between atoms: _311  and  _314
REMARK  119  A    between atoms: _314  and  _315
REMARK  120  A    between atoms: _315  and  _316
REMARK  121  A    between atoms: _319  and  _321
REMARK  122  A    between atoms: _321  and  _322
REMARK  123  A    between atoms: _321  and  _324
REMARK  124  A    between atoms: _324  and  _325
REMARK  125  A    between atoms: _327  and  _329
REMARK  126  A    between atoms: _329  and  _330
REMARK  127  A    between atoms: _329  and  _332
REMARK  128  A    between atoms: _332  and  _333
REMARK  129  A    between atoms: _343  and  _345
REMARK  130  A    between atoms: _345  and  _346
REMARK  131  A    between atoms: _345  and  _348
REMARK  132  A    between atoms: _348  and  _349
REMARK  133  A    between atoms: _349  and  _350
REMARK  134  A    between atoms: _353  and  _355
REMARK  135  A    between atoms: _355  and  _356
REMARK  136  A    between atoms: _355  and  _358
REMARK  137  A    between atoms: _358  and  _359
REMARK  138  A    between atoms: _362  and  _364
REMARK  139  A    between atoms: _364  and  _365
REMARK  140  A    between atoms: _364  and  _367
REMARK  141  A    between atoms: _367  and  _368
REMARK  142  A    between atoms: _371  and  _373
REMARK  143  A    between atoms: _373  and  _374
REMARK  144  A    between atoms: _373  and  _376
REMARK  145  A    between atoms: _376  and  _377
REMARK  146  A    between atoms: _377  and  _378
REMARK  147  A    between atoms: _378  and  _379
REMARK  148  A    between atoms: _388  and  _390
REMARK  149  A    between atoms: _390  and  _391
REMARK  150  A    between atoms: _394  and  _396
REMARK  151  A    between atoms: _396  and  _397
REMARK  152  A    between atoms: _400  and  _402
REMARK  153  A    between atoms: _402  and  _403
REMARK  154  A    between atoms: _406  and  _408
REMARK  155  A    between atoms: _408  and  _409
REMARK  156  A    between atoms: _408  and  _411
REMARK  157  A    between atoms: _411  and  _412
REMARK  158  A    between atoms: _414  and  _416
REMARK  159  A    between atoms: _416  and  _417
REMARK  160  A    between atoms: _419  and  _421
REMARK  161  A    between atoms: _421  and  _422
REMARK  162  A    between atoms: _421  and  _424
REMARK  163  A    between atoms: _424  and  _425
REMARK  164  A    between atoms: _435  and  _437
REMARK  165  A    between atoms: _437  and  _438
REMARK  166  A    between atoms: _437  and  _440
REMARK  167  A    between atoms: _440  and  _441
REMARK  168  A    between atoms: _444  and  _446
REMARK  169  A    between atoms: _446  and  _447
REMARK  170  A    between atoms: _446  and  _449
REMARK  171  A    between atoms: _449  and  _450
REMARK  172  A    between atoms: _456  and  _458
REMARK  173  A    between atoms: _458  and  _459
REMARK  174  A    between atoms: _458  and  _461
REMARK  175  A    between atoms: _461  and  _462
REMARK  176  A    between atoms: _462  and  _463
REMARK  177  A    between atoms: _468  and  _470
REMARK  178  A    between atoms: _470  and  _471
REMARK  179  A    between atoms: _470  and  _473
REMARK  180  A    between atoms: _473  and  _474
REMARK  181  A    between atoms: _484  and  _486
REMARK  182  A    between atoms: _486  and  _487
REMARK  183  A    between atoms: _486  and  _489
REMARK  184  A    between atoms: _489  and  _490
REMARK  185  A    between atoms: _501  and  _502
REMARK  186  A    between atoms: _507  and  _509
REMARK  187  A    between atoms: _509  and  _510
REMARK  188  A    between atoms: _509  and  _512
REMARK  189  A    between atoms: _512  and  _513
REMARK  190  A    between atoms: _513  and  _514
REMARK  191  A    between atoms: _517  and  _519
REMARK  192  A    between atoms: _519  and  _520
REMARK  193  A    between atoms: _519  and  _522
REMARK  194  A    between atoms: _522  and  _523
REMARK  195  A    between atoms: _523  and  _524
REMARK  196  A    between atoms: _524  and  _525
REMARK  197  A    between atoms: _525  and  _526
REMARK  198  A    between atoms: _530  and  _532
REMARK  199  A    between atoms: _532  and  _533
REMARK  200  A    between atoms: _535  and  _537
REMARK  201  A    between atoms: _537  and  _538
REMARK  202  A    between atoms: _537  and  _540
REMARK  203  A    between atoms: _540  and  _541
REMARK  204  A    between atoms: _541  and  _542
REMARK  205  A    between atoms: _545  and  _547
REMARK  206  A    between atoms: _547  and  _548
REMARK  207  A    between atoms: _547  and  _550
REMARK  208  A    between atoms: _550  and  _551
REMARK  209  A    between atoms: _556  and  _557
REMARK  210  A    between atoms: _559  and  _561
REMARK  211  A    between atoms: _561  and  _562
REMARK  212  A    between atoms: _561  and  _564
REMARK  213  A    between atoms: _564  and  _565
REMARK  214  A    between atoms: _565  and  _566
REMARK  215  A    between atoms: _571  and  _573
REMARK  216  A    between atoms: _573  and  _574
REMARK  217  A    between atoms: _573  and  _576
REMARK  218  A    between atoms: _576  and  _577
REMARK  219  A    between atoms: _583  and  _585
REMARK  220  A    between atoms: _585  and  _586
REMARK  221  A    between atoms: _588  and  _590
REMARK  222  A    between atoms: _590  and  _591
REMARK  223  A    between atoms: _590  and  _593
REMARK  224  A    between atoms: _593  and  _594
REMARK  225  A    between atoms: _604  and  _606
REMARK  226  A    between atoms: _606  and  _607
REMARK  227  A    between atoms: _606  and  _609
REMARK  228  A    between atoms: _609  and  _610
REMARK                            x       y       z     vdW  Elec       q    Type
REMARK                         _______ _______ _______ _____ _____    ______ ____
ROOT
ATOM      1  O   HOH     1      20.171  51.272  19.478  0.00  0.00    +0.000 OA
ENDROOT
TORSDOF 0
REMARK  Name = ../refined-set-2016/2jg0/2jg0_pocket.pdb
REMARK  228 active torsions:
REMARK  status: ('A' for Active; 'I' for Inactive)
REMARK    1  A    between atoms: _1  and  _3
REMARK    2  A    between atoms: _3  and  _4
REMARK    3  A    between atoms: _3  and  _6
REMARK    4  A    between atoms: _6  and  _7
REMARK    5  A    between atoms: _10  and  _12
REMARK    6  A    between atoms: _12  and  _13
REMARK    7  A    between atoms: _12  and  _15
REMARK    8  A    between atoms: _15  and  _16
REMARK    9  A    between atoms: _16  and  _17
REMARK   10  A    between atoms: _22  and  _24
REMARK   11  A    between atoms: _24  and  _25
REMARK   12  A    between atoms: _24  and  _27
REMARK   13  A    between atoms: _27  and  _28
REMARK   14  A    between atoms: _28  and  _29
REMARK   15  A    between atoms: _29  and  _30
REMARK   16  A    between atoms: _30  and  _31
REMARK   17  A    between atoms: _35  and  _37
REMARK   18  A    between atoms: _37  and  _38
REMARK   19  A    between atoms: _37  and  _40
REMARK   20  A    between atoms: _44  and  _45
REMARK   21  A    between atoms: _50  and  _52
REMARK   22  A    between atoms: _52  and  _53
REMARK   23  A    between atoms: _55  and  _57
REMARK   24  A    between atoms: _57  and  _58
REMARK   25  A    between atoms: _57  and  _60
REMARK   26  A    between atoms: _60  and  _61
REMARK   27  A    between atoms: _61  and  _62
REMARK   28  A    between atoms: _62  and  _63
REMARK   29  A    between atoms: _72  and  _74
REMARK   30  A    between atoms: _74  and  _75
REMARK   31  A    between atoms: _74  and  _77
REMARK   32  A    between atoms: _77  and  _78
REMARK   33  A    between atoms: _84  and  _86
REMARK   34  A    between atoms: _86  and  _87
REMARK   35  A    between atoms: _86  and  _89
REMARK   36  A    between atoms: _89  and  _90
REMARK   37  A    between atoms: _90  and  _91
REMARK   38  A    between atoms: _91  and  _92
REMARK   39  A    between atoms: _101  and  _103
REMARK   40  A    between atoms: _103  and  _104
REMARK   41  A    between atoms: _103  and  _106
REMARK   42  A    between atoms: _106  and  _107
REMARK   43  A    between atoms: _107  and  _108
REMARK   44  A    between atoms: _111  and  _113
REMARK   45  A    between atoms: _113  and  _114
REMARK   46  A    between atoms: _113  and  _116
REMARK   47  A    between atoms: _119  and  _121
REMARK   48  A    between atoms: _121  and  _122
REMARK   49  A    between atoms: _121  and  _124
REMARK   50  A    between atoms: _124  and  _125
REMARK   51  A    between atoms: _130  and  _131
REMARK   52  A    between atoms: _133  and  _135
REMARK   53  A    between atoms: _135  and  _136
REMARK   54  A    between atoms: _135  and  _138
REMARK   55  A    between atoms: _138  and  _139
REMARK   56  A    between atoms: _144  and  _145
REMARK   57  A    between atoms: _147  and  _149
REMARK   58  A    between atoms: _149  and  _150
REMARK   59  A    between atoms: _149  and  _152
REMARK   60  A    between atoms: _152  and  _153
REMARK   61  A    between atoms: _163  and  _165
REMARK   62  A    between atoms: _165  and  _166
REMARK   63  A    between atoms: _165  and  _168
REMARK   64  A    between atoms: _168  and  _169
REMARK   65  A    between atoms: _172  and  _174
REMARK   66  A    between atoms: _174  and  _175
REMARK   67  A    between atoms: _174  and  _177
REMARK   68  A    between atoms: _177  and  _178
REMARK   69  A    between atoms: _180  and  _182
REMARK   70  A    between atoms: _182  and  _183
REMARK   71  A    between atoms: _182  and  _185
REMARK   72  A    between atoms: _185  and  _186
REMARK   73  A    between atoms: _191  and  _193
REMARK   74  A    between atoms: _193  and  _194
REMARK   75  A    between atoms: _196  and  _198
REMARK   76  A    between atoms: _198  and  _199
REMARK   77  A    between atoms: _198  and  _201
REMARK   78  A    between atoms: _201  and  _202
REMARK   79  A    between atoms: _207  and  _208
REMARK   80  A    between atoms: _210  and  _212
REMARK   81  A    between atoms: _212  and  _213
REMARK   82  A    between atoms: _212  and  _215
REMARK   83  A    between atoms: _215  and  _216
REMARK   84  A    between atoms: _221  and  _222
REMARK   85  A    between atoms: _224  and  _226
REMARK   86  A    between atoms: _226  and  _227
REMARK   87  A    between atoms: _226  and  _229
REMARK   88  A    between atoms: _229  and  _230
REMARK   89  A    between atoms: _232  and  _234
REMARK   90  A    between atoms: _234  and  _235
REMARK   91  A    between atoms: _234  and  _237
REMARK   92  A    between atoms: _237  and  _238
REMARK   93  A    between atoms: _238  and  _239
REMARK   94  A    between atoms: _239  and  _240
REMARK   95  A    between atoms: _249  and  _251
REMARK   96  A    between atoms: _251  and  _252
REMARK   97  A    between atoms: _251  and  _254
REMARK   98  A    between atoms: _254  and  _255
REMARK   99  A    between atoms: _257  and  _259
REMARK  100  A    between atoms: _259  and  _260
REMARK  101  A    between atoms: _259  and  _262
REMARK  102  A    between atoms: _262  and  _263
REMARK  103  A    between atoms: _263  and  _264
REMARK  104  A    between atoms: _270  and  _271
REMARK  105  A    between atoms: _276  and  _278
REMARK  106  A    between atoms: _278  and  _279
REMARK  107  A    between atoms: _278  and  _281
REMARK  108  A    between atoms: _281  and  _282
REMARK  109  A    between atoms: _285  and  _287
REMARK  110  A    between atoms: _287  and  _288
REMARK  111  A    between atoms: _287  and  _290
REMARK  112  A    between atoms: _290  and  _291
REMARK  113  A    between atoms: _291  and  _292
REMARK  114  A    between atoms: _292  and  _293
REMARK  115  A    between atoms: _303  and  _304
REMARK  116  A    between atoms: _309  and  _311
REMARK  117  A    between atoms: _311  and  _312
REMARK  118  A    between atoms: _311  and  _314
REMARK  119  A    between atoms: _314  and  _315
REMARK  120  A    between atoms: _315  and  _316
REMARK  121  A    between atoms: _319  and  _321
REMARK  122  A    between atoms: _321  and  _322
REMARK  123  A    between atoms: _321  and  _324
REMARK  124  A    between atoms: _324  and  _325
REMARK  125  A    between atoms: _327  and  _329
REMARK  126  A    between atoms: _329  and  _330
REMARK  127  A    between atoms: _329  and  _332
REMARK  128  A    between atoms: _332  and  _333
REMARK  129  A    between atoms: _343  and  _345
REMARK  130  A    between atoms: _345  and  _346
REMARK  131  A    between atoms: _345  and  _348
REMARK  132  A    between atoms: _348  and  _349
REMARK  133  A    between atoms: _349  and  _350
REMARK  134  A    between atoms: _353  and  _355
REMARK  135  A    between atoms: _355  and  _356
REMARK  136  A    between atoms: _355  and  _358
REMARK  137  A    between atoms: _358  and  _359
REMARK  138  A    between atoms: _362  and  _364
REMARK  139  A    between atoms: _364  and  _365
REMARK  140  A    between atoms: _364  and  _367
REMARK  141  A    between atoms: _367  and  _368
REMARK  142  A    between atoms: _371  and  _373
REMARK  143  A    between atoms: _373  and  _374
REMARK  144  A    between atoms: _373  and  _376
REMARK  145  A    between atoms: _376  and  _377
REMARK  146  A    between atoms: _377  and  _378
REMARK  147  A    between atoms: _378  and  _379
REMARK  148  A    between atoms: _388  and  _390
REMARK  149  A    between atoms: _390  and  _391
REMARK  150  A    between atoms: _394  and  _396
REMARK  151  A    between atoms: _396  and  _397
REMARK  152  A    between atoms: _400  and  _402
REMARK  153  A    between atoms: _402  and  _403
REMARK  154  A    between atoms: _406  and  _408
REMARK  155  A    between atoms: _408  and  _409
REMARK  156  A    between atoms: _408  and  _411
REMARK  157  A    between atoms: _411  and  _412
REMARK  158  A    between atoms: _414  and  _416
REMARK  159  A    between atoms: _416  and  _417
REMARK  160  A    between atoms: _419  and  _421
REMARK  161  A    between atoms: _421  and  _422
REMARK  162  A    between atoms: _421  and  _424
REMARK  163  A    between atoms: _424  and  _425
REMARK  164  A    between atoms: _435  and  _437
REMARK  165  A    between atoms: _437  and  _438
REMARK  166  A    between atoms: _437  and  _440
REMARK  167  A    between atoms: _440  and  _441
REMARK  168  A    between atoms: _444  and  _446
REMARK  169  A    between atoms: _446  and  _447
REMARK  170  A    between atoms: _446  and  _449
REMARK  171  A    between atoms: _449  and  _450
REMARK  172  A    between atoms: _456  and  _458
REMARK  173  A    between atoms: _458  and  _459
REMARK  174  A    between atoms: _458  and  _461
REMARK  175  A    between atoms: _461  and  _462
REMARK  176  A    between atoms: _462  and  _463
REMARK  177  A    between atoms: _468  and  _470
REMARK  178  A    between atoms: _470  and  _471
REMARK  179  A    between atoms: _470  and  _473
REMARK  180  A    between atoms: _473  and  _474
REMARK  181  A    between atoms: _484  and  _486
REMARK  182  A    between atoms: _486  and  _487
REMARK  183  A    between atoms: _486  and  _489
REMARK  184  A    between atoms: _489  and  _490
REMARK  185  A    between atoms: _501  and  _502
REMARK  186  A    between atoms: _507  and  _509
REMARK  187  A    between atoms: _509  and  _510
REMARK  188  A    between atoms: _509  and  _512
REMARK  189  A    between atoms: _512  and  _513
REMARK  190  A    between atoms: _513  and  _514
REMARK  191  A    between atoms: _517  and  _519
REMARK  192  A    between atoms: _519  and  _520
REMARK  193  A    between atoms: _519  and  _522
REMARK  194  A    between atoms: _522  and  _523
REMARK  195  A    between atoms: _523  and  _524
REMARK  196  A    between atoms: _524  and  _525
REMARK  197  A    between atoms: _525  and  _526
REMARK  198  A    between atoms: _530  and  _532
REMARK  199  A    between atoms: _532  and  _533
REMARK  200  A    between atoms: _535  and  _537
REMARK  201  A    between atoms: _537  and  _538
REMARK  202  A    between atoms: _537  and  _540
REMARK  203  A    between atoms: _540  and  _541
REMARK  204  A    between atoms: _541  and  _542
REMARK  205  A    between atoms: _545  and  _547
REMARK  206  A    between atoms: _547  and  _548
REMARK  207  A    between atoms: _547  and  _550
REMARK  208  A    between atoms: _550  and  _551
REMARK  209  A    between atoms: _556  and  _557
REMARK  210  A    between atoms: _559  and  _561
REMARK  211  A    between atoms: _561  and  _562
REMARK  212  A    between atoms: _561  and  _564
REMARK  213  A    between atoms: _564  and  _565
REMARK  214  A    between atoms: _565  and  _566
REMARK  215  A    between atoms: _571  and  _573
REMARK  216  A    between atoms: _573  and  _574
REMARK  217  A    between atoms: _573  and  _576
REMARK  218  A    between atoms: _576  and  _577
REMARK  219  A    between atoms: _583  and  _585
REMARK  220  A    between atoms: _585  and  _586
REMARK  221  A    between atoms: _588  and  _590
REMARK  222  A    between atoms: _590  and  _591
REMARK  223  A    between atoms: _590  and  _593
REMARK  224  A    between atoms: _593  and  _594
REMARK  225  A    between atoms: _604  and  _606
REMARK  226  A    between atoms: _606  and  _607
REMARK  227  A    between atoms: _606  and  _609
REMARK  228  A    between atoms: _609  and  _610
REMARK                            x       y       z     vdW  Elec       q    Type
REMARK                         _______ _______ _______ _____ _____    ______ ____
ROOT
ATOM      1  O   HOH     1      18.067  52.682  20.849  0.00  0.00    +0.000 OA
ENDROOT
TORSDOF 0
REMARK  Name = ../refined-set-2016/2jg0/2jg0_pocket.pdb
REMARK  228 active torsions:
REMARK  status: ('A' for Active; 'I' for Inactive)
REMARK    1  A    between atoms: _1  and  _3
REMARK    2  A    between atoms: _3  and  _4
REMARK    3  A    between atoms: _3  and  _6
REMARK    4  A    between atoms: _6  and  _7
REMARK    5  A    between atoms: _10  and  _12
REMARK    6  A    between atoms: _12  and  _13
REMARK    7  A    between atoms: _12  and  _15
REMARK    8  A    between atoms: _15  and  _16
REMARK    9  A    between atoms: _16  and  _17
REMARK   10  A    between atoms: _22  and  _24
REMARK   11  A    between atoms: _24  and  _25
REMARK   12  A    between atoms: _24  and  _27
REMARK   13  A    between atoms: _27  and  _28
REMARK   14  A    between atoms: _28  and  _29
REMARK   15  A    between atoms: _29  and  _30
REMARK   16  A    between atoms: _30  and  _31
REMARK   17  A    between atoms: _35  and  _37
REMARK   18  A    between atoms: _37  and  _38
REMARK   19  A    between atoms: _37  and  _40
REMARK   20  A    between atoms: _44  and  _45
REMARK   21  A    between atoms: _50  and  _52
REMARK   22  A    between atoms: _52  and  _53
REMARK   23  A    between atoms: _55  and  _57
REMARK   24  A    between atoms: _57  and  _58
REMARK   25  A    between atoms: _57  and  _60
REMARK   26  A    between atoms: _60  and  _61
REMARK   27  A    between atoms: _61  and  _62
REMARK   28  A    between atoms: _62  and  _63
REMARK   29  A    between atoms: _72  and  _74
REMARK   30  A    between atoms: _74  and  _75
REMARK   31  A    between atoms: _74  and  _77
REMARK   32  A    between atoms: _77  and  _78
REMARK   33  A    between atoms: _84  and  _86
REMARK   34  A    between atoms: _86  and  _87
REMARK   35  A    between atoms: _86  and  _89
REMARK   36  A    between atoms: _89  and  _90
REMARK   37  A    between atoms: _90  and  _91
REMARK   38  A    between atoms: _91  and  _92
REMARK   39  A    between atoms: _101  and  _103
REMARK   40  A    between atoms: _103  and  _104
REMARK   41  A    between atoms: _103  and  _106
REMARK   42  A    between atoms: _106  and  _107
REMARK   43  A    between atoms: _107  and  _108
REMARK   44  A    between atoms: _111  and  _113
REMARK   45  A    between atoms: _113  and  _114
REMARK   46  A    between atoms: _113  and  _116
REMARK   47  A    between atoms: _119  and  _121
REMARK   48  A    between atoms: _121  and  _122
REMARK   49  A    between atoms: _121  and  _124
REMARK   50  A    between atoms: _124  and  _125
REMARK   51  A    between atoms: _130  and  _131
REMARK   52  A    between atoms: _133  and  _135
REMARK   53  A    between atoms: _135  and  _136
REMARK   54  A    between atoms: _135  and  _138
REMARK   55  A    between atoms: _138  and  _139
REMARK   56  A    between atoms: _144  and  _145
REMARK   57  A    between atoms: _147  and  _149
REMARK   58  A    between atoms: _149  and  _150
REMARK   59  A    between atoms: _149  and  _152
REMARK   60  A    between atoms: _152  and  _153
REMARK   61  A    between atoms: _163  and  _165
REMARK   62  A    between atoms: _165  and  _166
REMARK   63  A    between atoms: _165  and  _168
REMARK   64  A    between atoms: _168  and  _169
REMARK   65  A    between atoms: _172  and  _174
REMARK   66  A    between atoms: _174  and  _175
REMARK   67  A    between atoms: _174  and  _177
REMARK   68  A    between atoms: _177  and  _178
REMARK   69  A    between atoms: _180  and  _182
REMARK   70  A    between atoms: _182  and  _183
REMARK   71  A    between atoms: _182  and  _185
REMARK   72  A    between atoms: _185  and  _186
REMARK   73  A    between atoms: _191  and  _193
REMARK   74  A    between atoms: _193  and  _194
REMARK   75  A    between atoms: _196  and  _198
REMARK   76  A    between atoms: _198  and  _199
REMARK   77  A    between atoms: _198  and  _201
REMARK   78  A    between atoms: _201  and  _202
REMARK   79  A    between atoms: _207  and  _208
REMARK   80  A    between atoms: _210  and  _212
REMARK   81  A    between atoms: _212  and  _213
REMARK   82  A    between atoms: _212  and  _215
REMARK   83  A    between atoms: _215  and  _216
REMARK   84  A    between atoms: _221  and  _222
REMARK   85  A    between atoms: _224  and  _226
REMARK   86  A    between atoms: _226  and  _227
REMARK   87  A    between atoms: _226  and  _229
REMARK   88  A    between atoms: _229  and  _230
REMARK   89  A    between atoms: _232  and  _234
REMARK   90  A    between atoms: _234  and  _235
REMARK   91  A    between atoms: _234  and  _237
REMARK   92  A    between atoms: _237  and  _238
REMARK   93  A    between atoms: _238  and  _239
REMARK   94  A    between atoms: _239  and  _240
REMARK   95  A    between atoms: _249  and  _251
REMARK   96  A    between atoms: _251  and  _252
REMARK   97  A    between atoms: _251  and  _254
REMARK   98  A    between atoms: _254  and  _255
REMARK   99  A    between atoms: _257  and  _259
REMARK  100  A    between atoms: _259  and  _260
REMARK  101  A    between atoms: _259  and  _262
REMARK  102  A    between atoms: _262  and  _263
REMARK  103  A    between atoms: _263  and  _264
REMARK  104  A    between atoms: _270  and  _271
REMARK  105  A    between atoms: _276  and  _278
REMARK  106  A    between atoms: _278  and  _279
REMARK  107  A    between atoms: _278  and  _281
REMARK  108  A    between atoms: _281  and  _282
REMARK  109  A    between atoms: _285  and  _287
REMARK  110  A    between atoms: _287  and  _288
REMARK  111  A    between atoms: _287  and  _290
REMARK  112  A    between atoms: _290  and  _291
REMARK  113  A    between atoms: _291  and  _292
REMARK  114  A    between atoms: _292  and  _293
REMARK  115  A    between atoms: _303  and  _304
REMARK  116  A    between atoms: _309  and  _311
REMARK  117  A    between atoms: _311  and  _312
REMARK  118  A    between atoms: _311  and  _314
REMARK  119  A    between atoms: _314  and  _315
REMARK  120  A    between atoms: _315  and  _316
REMARK  121  A    between atoms: _319  and  _321
REMARK  122  A    between atoms: _321  and  _322
REMARK  123  A    between atoms: _321  and  _324
REMARK  124  A    between atoms: _324  and  _325
REMARK  125  A    between atoms: _327  and  _329
REMARK  126  A    between atoms: _329  and  _330
REMARK  127  A    between atoms: _329  and  _332
REMARK  128  A    between atoms: _332  and  _333
REMARK  129  A    between atoms: _343  and  _345
REMARK  130  A    between atoms: _345  and  _346
REMARK  131  A    between atoms: _345  and  _348
REMARK  132  A    between atoms: _348  and  _349
REMARK  133  A    between atoms: _349  and  _350
REMARK  134  A    between atoms: _353  and  _355
REMARK  135  A    between atoms: _355  and  _356
REMARK  136  A    between atoms: _355  and  _358
REMARK  137  A    between atoms: _358  and  _359
REMARK  138  A    between atoms: _362  and  _364
REMARK  139  A    between atoms: _364  and  _365
REMARK  140  A    between atoms: _364  and  _367
REMARK  141  A    between atoms: _367  and  _368
REMARK  142  A    between atoms: _371  and  _373
REMARK  143  A    between atoms: _373  and  _374
REMARK  144  A    between atoms: _373  and  _376
REMARK  145  A    between atoms: _376  and  _377
REMARK  146  A    between atoms: _377  and  _378
REMARK  147  A    between atoms: _378  and  _379
REMARK  148  A    between atoms: _388  and  _390
REMARK  149  A    between atoms: _390  and  _391
REMARK  150  A    between atoms: _394  and  _396
REMARK  151  A    between atoms: _396  and  _397
REMARK  152  A    between atoms: _400  and  _402
REMARK  153  A    between atoms: _402  and  _403
REMARK  154  A    between atoms: _406  and  _408
REMARK  155  A    between atoms: _408  and  _409
REMARK  156  A    between atoms: _408  and  _411
REMARK  157  A    between atoms: _411  and  _412
REMARK  158  A    between atoms: _414  and  _416
REMARK  159  A    between atoms: _416  and  _417
REMARK  160  A    between atoms: _419  and  _421
REMARK  161  A    between atoms: _421  and  _422
REMARK  162  A    between atoms: _421  and  _424
REMARK  163  A    between atoms: _424  and  _425
REMARK  164  A    between atoms: _435  and  _437
REMARK  165  A    between atoms: _437  and  _438
REMARK  166  A    between atoms: _437  and  _440
REMARK  167  A    between atoms: _440  and  _441
REMARK  168  A    between atoms: _444  and  _446
REMARK  169  A    between atoms: _446  and  _447
REMARK  170  A    between atoms: _446  and  _449
REMARK  171  A    between atoms: _449  and  _450
REMARK  172  A    between atoms: _456  and  _458
REMARK  173  A    between atoms: _458  and  _459
REMARK  174  A    between atoms: _458  and  _461
REMARK  175  A    between atoms: _461  and  _462
REMARK  176  A    between atoms: _462  and  _463
REMARK  177  A    between atoms: _468  and  _470
REMARK  178  A    between atoms: _470  and  _471
REMARK  179  A    between atoms: _470  and  _473
REMARK  180  A    between atoms: _473  and  _474
REMARK  181  A    between atoms: _484  and  _486
REMARK  182  A    between atoms: _486  and  _487
REMARK  183  A    between atoms: _486  and  _489
REMARK  184  A    between atoms: _489  and  _490
REMARK  185  A    between atoms: _501  and  _502
REMARK  186  A    between atoms: _507  and  _509
REMARK  187  A    between atoms: _509  and  _510
REMARK  188  A    between atoms: _509  and  _512
REMARK  189  A    between atoms: _512  and  _513
REMARK  190  A    between atoms: _513  and  _514
REMARK  191  A    between atoms: _517  and  _519
REMARK  192  A    between atoms: _519  and  _520
REMARK  193  A    between atoms: _519  and  _522
REMARK  194  A    between atoms: _522  and  _523
REMARK  195  A    between atoms: _523  and  _524
REMARK  196  A    between atoms: _524  and  _525
REMARK  197  A    between atoms: _525  and  _526
REMARK  198  A    between atoms: _530  and  _532
REMARK  199  A    between atoms: _532  and  _533
REMARK  200  A    between atoms: _535  and  _537
REMARK  201  A    between atoms: _537  and  _538
REMARK  202  A    between atoms: _537  and  _540
REMARK  203  A    between atoms: _540  and  _541
REMARK  204  A    between atoms: _541  and  _542
REMARK  205  A    between atoms: _545  and  _547
REMARK  206  A    between atoms: _547  and  _548
REMARK  207  A    between atoms: _547  and  _550
REMARK  208  A    between atoms: _550  and  _551
REMARK  209  A    between atoms: _556  and  _557
REMARK  210  A    between atoms: _559  and  _561
REMARK  211  A    between atoms: _561  and  _562
REMARK  212  A    between atoms: _561  and  _564
REMARK  213  A    between atoms: _564  and  _565
REMARK  214  A    between atoms: _565  and  _566
REMARK  215  A    between atoms: _571  and  _573
REMARK  216  A    between atoms: _573  and  _574
REMARK  217  A    between atoms: _573  and  _576
REMARK  218  A    between atoms: _576  and  _577
REMARK  219  A    between atoms: _583  and  _585
REMARK  220  A    between atoms: _585  and  _586
REMARK  221  A    between atoms: _588  and  _590
REMARK  222  A    between atoms: _590  and  _591
REMARK  223  A    between atoms: _590  and  _593
REMARK  224  A    between atoms: _593  and  _594
REMARK  225  A    between atoms: _604  and  _606
REMARK  226  A    between atoms: _606  and  _607
REMARK  227  A    between atoms: _606  and  _609
REMARK  228  A    between atoms: _609  and  _610
REMARK                            x       y       z     vdW  Elec       q    Type
REMARK                         _______ _______ _______ _____ _____    ______ ____
ROOT
ATOM      1  O   HOH     1      20.417  54.366   3.366  0.00  0.00    +0.000 OA
ENDROOT
TORSDOF 0
REMARK  Name = ../refined-set-2016/2jg0/2jg0_pocket.pdb
REMARK  228 active torsions:
REMARK  status: ('A' for Active; 'I' for Inactive)
REMARK    1  A    between atoms: _1  and  _3
REMARK    2  A    between atoms: _3  and  _4
REMARK    3  A    between atoms: _3  and  _6
REMARK    4  A    between atoms: _6  and  _7
REMARK    5  A    between atoms: _10  and  _12
REMARK    6  A    between atoms: _12  and  _13
REMARK    7  A    between atoms: _12  and  _15
REMARK    8  A    between atoms: _15  and  _16
REMARK    9  A    between atoms: _16  and  _17
REMARK   10  A    between atoms: _22  and  _24
REMARK   11  A    between atoms: _24  and  _25
REMARK   12  A    between atoms: _24  and  _27
REMARK   13  A    between atoms: _27  and  _28
REMARK   14  A    between atoms: _28  and  _29
REMARK   15  A    between atoms: _29  and  _30
REMARK   16  A    between atoms: _30  and  _31
REMARK   17  A    between atoms: _35  and  _37
REMARK   18  A    between atoms: _37  and  _38
REMARK   19  A    between atoms: _37  and  _40
REMARK   20  A    between atoms: _44  and  _45
REMARK   21  A    between atoms: _50  and  _52
REMARK   22  A    between atoms: _52  and  _53
REMARK   23  A    between atoms: _55  and  _57
REMARK   24  A    between atoms: _57  and  _58
REMARK   25  A    between atoms: _57  and  _60
REMARK   26  A    between atoms: _60  and  _61
REMARK   27  A    between atoms: _61  and  _62
REMARK   28  A    between atoms: _62  and  _63
REMARK   29  A    between atoms: _72  and  _74
REMARK   30  A    between atoms: _74  and  _75
REMARK   31  A    between atoms: _74  and  _77
REMARK   32  A    between atoms: _77  and  _78
REMARK   33  A    between atoms: _84  and  _86
REMARK   34  A    between atoms: _86  and  _87
REMARK   35  A    between atoms: _86  and  _89
REMARK   36  A    between atoms: _89  and  _90
REMARK   37  A    between atoms: _90  and  _91
REMARK   38  A    between atoms: _91  and  _92
REMARK   39  A    between atoms: _101  and  _103
REMARK   40  A    between atoms: _103  and  _104
REMARK   41  A    between atoms: _103  and  _106
REMARK   42  A    between atoms: _106  and  _107
REMARK   43  A    between atoms: _107  and  _108
REMARK   44  A    between atoms: _111  and  _113
REMARK   45  A    between atoms: _113  and  _114
REMARK   46  A    between atoms: _113  and  _116
REMARK   47  A    between atoms: _119  and  _121
REMARK   48  A    between atoms: _121  and  _122
REMARK   49  A    between atoms: _121  and  _124
REMARK   50  A    between atoms: _124  and  _125
REMARK   51  A    between atoms: _130  and  _131
REMARK   52  A    between atoms: _133  and  _135
REMARK   53  A    between atoms: _135  and  _136
REMARK   54  A    between atoms: _135  and  _138
REMARK   55  A    between atoms: _138  and  _139
REMARK   56  A    between atoms: _144  and  _145
REMARK   57  A    between atoms: _147  and  _149
REMARK   58  A    between atoms: _149  and  _150
REMARK   59  A    between atoms: _149  and  _152
REMARK   60  A    between atoms: _152  and  _153
REMARK   61  A    between atoms: _163  and  _165
REMARK   62  A    between atoms: _165  and  _166
REMARK   63  A    between atoms: _165  and  _168
REMARK   64  A    between atoms: _168  and  _169
REMARK   65  A    between atoms: _172  and  _174
REMARK   66  A    between atoms: _174  and  _175
REMARK   67  A    between atoms: _174  and  _177
REMARK   68  A    between atoms: _177  and  _178
REMARK   69  A    between atoms: _180  and  _182
REMARK   70  A    between atoms: _182  and  _183
REMARK   71  A    between atoms: _182  and  _185
REMARK   72  A    between atoms: _185  and  _186
REMARK   73  A    between atoms: _191  and  _193
REMARK   74  A    between atoms: _193  and  _194
REMARK   75  A    between atoms: _196  and  _198
REMARK   76  A    between atoms: _198  and  _199
REMARK   77  A    between atoms: _198  and  _201
REMARK   78  A    between atoms: _201  and  _202
REMARK   79  A    between atoms: _207  and  _208
REMARK   80  A    between atoms: _210  and  _212
REMARK   81  A    between atoms: _212  and  _213
REMARK   82  A    between atoms: _212  and  _215
REMARK   83  A    between atoms: _215  and  _216
REMARK   84  A    between atoms: _221  and  _222
REMARK   85  A    between atoms: _224  and  _226
REMARK   86  A    between atoms: _226  and  _227
REMARK   87  A    between atoms: _226  and  _229
REMARK   88  A    between atoms: _229  and  _230
REMARK   89  A    between atoms: _232  and  _234
REMARK   90  A    between atoms: _234  and  _235
REMARK   91  A    between atoms: _234  and  _237
REMARK   92  A    between atoms: _237  and  _238
REMARK   93  A    between atoms: _238  and  _239
REMARK   94  A    between atoms: _239  and  _240
REMARK   95  A    between atoms: _249  and  _251
REMARK   96  A    between atoms: _251  and  _252
REMARK   97  A    between atoms: _251  and  _254
REMARK   98  A    between atoms: _254  and  _255
REMARK   99  A    between atoms: _257  and  _259
REMARK  100  A    between atoms: _259  and  _260
REMARK  101  A    between atoms: _259  and  _262
REMARK  102  A    between atoms: _262  and  _263
REMARK  103  A    between atoms: _263  and  _264
REMARK  104  A    between atoms: _270  and  _271
REMARK  105  A    between atoms: _276  and  _278
REMARK  106  A    between atoms: _278  and  _279
REMARK  107  A    between atoms: _278  and  _281
REMARK  108  A    between atoms: _281  and  _282
REMARK  109  A    between atoms: _285  and  _287
REMARK  110  A    between atoms: _287  and  _288
REMARK  111  A    between atoms: _287  and  _290
REMARK  112  A    between atoms: _290  and  _291
REMARK  113  A    between atoms: _291  and  _292
REMARK  114  A    between atoms: _292  and  _293
REMARK  115  A    between atoms: _303  and  _304
REMARK  116  A    between atoms: _309  and  _311
REMARK  117  A    between atoms: _311  and  _312
REMARK  118  A    between atoms: _311  and  _314
REMARK  119  A    between atoms: _314  and  _315
REMARK  120  A    between atoms: _315  and  _316
REMARK  121  A    between atoms: _319  and  _321
REMARK  122  A    between atoms: _321  and  _322
REMARK  123  A    between atoms: _321  and  _324
REMARK  124  A    between atoms: _324  and  _325
REMARK  125  A    between atoms: _327  and  _329
REMARK  126  A    between atoms: _329  and  _330
REMARK  127  A    between atoms: _329  and  _332
REMARK  128  A    between atoms: _332  and  _333
REMARK  129  A    between atoms: _343  and  _345
REMARK  130  A    between atoms: _345  and  _346
REMARK  131  A    between atoms: _345  and  _348
REMARK  132  A    between atoms: _348  and  _349
REMARK  133  A    between atoms: _349  and  _350
REMARK  134  A    between atoms: _353  and  _355
REMARK  135  A    between atoms: _355  and  _356
REMARK  136  A    between atoms: _355  and  _358
REMARK  137  A    between atoms: _358  and  _359
REMARK  138  A    between atoms: _362  and  _364
REMARK  139  A    between atoms: _364  and  _365
REMARK  140  A    between atoms: _364  and  _367
REMARK  141  A    between atoms: _367  and  _368
REMARK  142  A    between atoms: _371  and  _373
REMARK  143  A    between atoms: _373  and  _374
REMARK  144  A    between atoms: _373  and  _376
REMARK  145  A    between atoms: _376  and  _377
REMARK  146  A    between atoms: _377  and  _378
REMARK  147  A    between atoms: _378  and  _379
REMARK  148  A    between atoms: _388  and  _390
REMARK  149  A    between atoms: _390  and  _391
REMARK  150  A    between atoms: _394  and  _396
REMARK  151  A    between atoms: _396  and  _397
REMARK  152  A    between atoms: _400  and  _402
REMARK  153  A    between atoms: _402  and  _403
REMARK  154  A    between atoms: _406  and  _408
REMARK  155  A    between atoms: _408  and  _409
REMARK  156  A    between atoms: _408  and  _411
REMARK  157  A    between atoms: _411  and  _412
REMARK  158  A    between atoms: _414  and  _416
REMARK  159  A    between atoms: _416  and  _417
REMARK  160  A    between atoms: _419  and  _421
REMARK  161  A    between atoms: _421  and  _422
REMARK  162  A    between atoms: _421  and  _424
REMARK  163  A    between atoms: _424  and  _425
REMARK  164  A    between atoms: _435  and  _437
REMARK  165  A    between atoms: _437  and  _438
REMARK  166  A    between atoms: _437  and  _440
REMARK  167  A    between atoms: _440  and  _441
REMARK  168  A    between atoms: _444  and  _446
REMARK  169  A    between atoms: _446  and  _447
REMARK  170  A    between atoms: _446  and  _449
REMARK  171  A    between atoms: _449  and  _450
REMARK  172  A    between atoms: _456  and  _458
REMARK  173  A    between atoms: _458  and  _459
REMARK  174  A    between atoms: _458  and  _461
REMARK  175  A    between atoms: _461  and  _462
REMARK  176  A    between atoms: _462  and  _463
REMARK  177  A    between atoms: _468  and  _470
REMARK  178  A    between atoms: _470  and  _471
REMARK  179  A    between atoms: _470  and  _473
REMARK  180  A    between atoms: _473  and  _474
REMARK  181  A    between atoms: _484  and  _486
REMARK  182  A    between atoms: _486  and  _487
REMARK  183  A    between atoms: _486  and  _489
REMARK  184  A    between atoms: _489  and  _490
REMARK  185  A    between atoms: _501  and  _502
REMARK  186  A    between atoms: _507  and  _509
REMARK  187  A    between atoms: _509  and  _510
REMARK  188  A    between atoms: _509  and  _512
REMARK  189  A    between atoms: _512  and  _513
REMARK  190  A    between atoms: _513  and  _514
REMARK  191  A    between atoms: _517  and  _519
REMARK  192  A    between atoms: _519  and  _520
REMARK  193  A    between atoms: _519  and  _522
REMARK  194  A    between atoms: _522  and  _523
REMARK  195  A    between atoms: _523  and  _524
REMARK  196  A    between atoms: _524  and  _525
REMARK  197  A    between atoms: _525  and  _526
REMARK  198  A    between atoms: _530  and  _532
REMARK  199  A    between atoms: _532  and  _533
REMARK  200  A    between atoms: _535  and  _537
REMARK  201  A    between atoms: _537  and  _538
REMARK  202  A    between atoms: _537  and  _540
REMARK  203  A    between atoms: _540  and  _541
REMARK  204  A    between atoms: _541  and  _542
REMARK  205  A    between atoms: _545  and  _547
REMARK  206  A    between atoms: _547  and  _548
REMARK  207  A    between atoms: _547  and  _550
REMARK  208  A    between atoms: _550  and  _551
REMARK  209  A    between atoms: _556  and  _557
REMARK  210  A    between atoms: _559  and  _561
REMARK  211  A    between atoms: _561  and  _562
REMARK  212  A    between atoms: _561  and  _564
REMARK  213  A    between atoms: _564  and  _565
REMARK  214  A    between atoms: _565  and  _566
REMARK  215  A    between atoms: _571  and  _573
REMARK  216  A    between atoms: _573  and  _574
REMARK  217  A    between atoms: _573  and  _576
REMARK  218  A    between atoms: _576  and  _577
REMARK  219  A    between atoms: _583  and  _585
REMARK  220  A    between atoms: _585  and  _586
REMARK  221  A    between atoms: _588  and  _590
REMARK  222  A    between atoms: _590  and  _591
REMARK  223  A    between atoms: _590  and  _593
REMARK  224  A    between atoms: _593  and  _594
REMARK  225  A    between atoms: _604  and  _606
REMARK  226  A    between atoms: _606  and  _607
REMARK  227  A    between atoms: _606  and  _609
REMARK  228  A    between atoms: _609  and  _610
REMARK                            x       y       z     vdW  Elec       q    Type
REMARK                         _______ _______ _______ _____ _____    ______ ____
ROOT
ATOM      1  O   HOH     1      11.471  51.231   3.736  0.00  0.00    +0.000 OA
ENDROOT
TORSDOF 0
REMARK  Name = ../refined-set-2016/2jg0/2jg0_pocket.pdb
REMARK  228 active torsions:
REMARK  status: ('A' for Active; 'I' for Inactive)
REMARK    1  A    between atoms: _1  and  _3
REMARK    2  A    between atoms: _3  and  _4
REMARK    3  A    between atoms: _3  and  _6
REMARK    4  A    between atoms: _6  and  _7
REMARK    5  A    between atoms: _10  and  _12
REMARK    6  A    between atoms: _12  and  _13
REMARK    7  A    between atoms: _12  and  _15
REMARK    8  A    between atoms: _15  and  _16
REMARK    9  A    between atoms: _16  and  _17
REMARK   10  A    between atoms: _22  and  _24
REMARK   11  A    between atoms: _24  and  _25
REMARK   12  A    between atoms: _24  and  _27
REMARK   13  A    between atoms: _27  and  _28
REMARK   14  A    between atoms: _28  and  _29
REMARK   15  A    between atoms: _29  and  _30
REMARK   16  A    between atoms: _30  and  _31
REMARK   17  A    between atoms: _35  and  _37
REMARK   18  A    between atoms: _37  and  _38
REMARK   19  A    between atoms: _37  and  _40
REMARK   20  A    between atoms: _44  and  _45
REMARK   21  A    between atoms: _50  and  _52
REMARK   22  A    between atoms: _52  and  _53
REMARK   23  A    between atoms: _55  and  _57
REMARK   24  A    between atoms: _57  and  _58
REMARK   25  A    between atoms: _57  and  _60
REMARK   26  A    between atoms: _60  and  _61
REMARK   27  A    between atoms: _61  and  _62
REMARK   28  A    between atoms: _62  and  _63
REMARK   29  A    between atoms: _72  and  _74
REMARK   30  A    between atoms: _74  and  _75
REMARK   31  A    between atoms: _74  and  _77
REMARK   32  A    between atoms: _77  and  _78
REMARK   33  A    between atoms: _84  and  _86
REMARK   34  A    between atoms: _86  and  _87
REMARK   35  A    between atoms: _86  and  _89
REMARK   36  A    between atoms: _89  and  _90
REMARK   37  A    between atoms: _90  and  _91
REMARK   38  A    between atoms: _91  and  _92
REMARK   39  A    between atoms: _101  and  _103
REMARK   40  A    between atoms: _103  and  _104
REMARK   41  A    between atoms: _103  and  _106
REMARK   42  A    between atoms: _106  and  _107
REMARK   43  A    between atoms: _107  and  _108
REMARK   44  A    between atoms: _111  and  _113
REMARK   45  A    between atoms: _113  and  _114
REMARK   46  A    between atoms: _113  and  _116
REMARK   47  A    between atoms: _119  and  _121
REMARK   48  A    between atoms: _121  and  _122
REMARK   49  A    between atoms: _121  and  _124
REMARK   50  A    between atoms: _124  and  _125
REMARK   51  A    between atoms: _130  and  _131
REMARK   52  A    between atoms: _133  and  _135
REMARK   53  A    between atoms: _135  and  _136
REMARK   54  A    between atoms: _135  and  _138
REMARK   55  A    between atoms: _138  and  _139
REMARK   56  A    between atoms: _144  and  _145
REMARK   57  A    between atoms: _147  and  _149
REMARK   58  A    between atoms: _149  and  _150
REMARK   59  A    between atoms: _149  and  _152
REMARK   60  A    between atoms: _152  and  _153
REMARK   61  A    between atoms: _163  and  _165
REMARK   62  A    between atoms: _165  and  _166
REMARK   63  A    between atoms: _165  and  _168
REMARK   64  A    between atoms: _168  and  _169
REMARK   65  A    between atoms: _172  and  _174
REMARK   66  A    between atoms: _174  and  _175
REMARK   67  A    between atoms: _174  and  _177
REMARK   68  A    between atoms: _177  and  _178
REMARK   69  A    between atoms: _180  and  _182
REMARK   70  A    between atoms: _182  and  _183
REMARK   71  A    between atoms: _182  and  _185
REMARK   72  A    between atoms: _185  and  _186
REMARK   73  A    between atoms: _191  and  _193
REMARK   74  A    between atoms: _193  and  _194
REMARK   75  A    between atoms: _196  and  _198
REMARK   76  A    between atoms: _198  and  _199
REMARK   77  A    between atoms: _198  and  _201
REMARK   78  A    between atoms: _201  and  _202
REMARK   79  A    between atoms: _207  and  _208
REMARK   80  A    between atoms: _210  and  _212
REMARK   81  A    between atoms: _212  and  _213
REMARK   82  A    between atoms: _212  and  _215
REMARK   83  A    between atoms: _215  and  _216
REMARK   84  A    between atoms: _221  and  _222
REMARK   85  A    between atoms: _224  and  _226
REMARK   86  A    between atoms: _226  and  _227
REMARK   87  A    between atoms: _226  and  _229
REMARK   88  A    between atoms: _229  and  _230
REMARK   89  A    between atoms: _232  and  _234
REMARK   90  A    between atoms: _234  and  _235
REMARK   91  A    between atoms: _234  and  _237
REMARK   92  A    between atoms: _237  and  _238
REMARK   93  A    between atoms: _238  and  _239
REMARK   94  A    between atoms: _239  and  _240
REMARK   95  A    between atoms: _249  and  _251
REMARK   96  A    between atoms: _251  and  _252
REMARK   97  A    between atoms: _251  and  _254
REMARK   98  A    between atoms: _254  and  _255
REMARK   99  A    between atoms: _257  and  _259
REMARK  100  A    between atoms: _259  and  _260
REMARK  101  A    between atoms: _259  and  _262
REMARK  102  A    between atoms: _262  and  _263
REMARK  103  A    between atoms: _263  and  _264
REMARK  104  A    between atoms: _270  and  _271
REMARK  105  A    between atoms: _276  and  _278
REMARK  106  A    between atoms: _278  and  _279
REMARK  107  A    between atoms: _278  and  _281
REMARK  108  A    between atoms: _281  and  _282
REMARK  109  A    between atoms: _285  and  _287
REMARK  110  A    between atoms: _287  and  _288
REMARK  111  A    between atoms: _287  and  _290
REMARK  112  A    between atoms: _290  and  _291
REMARK  113  A    between atoms: _291  and  _292
REMARK  114  A    between atoms: _292  and  _293
REMARK  115  A    between atoms: _303  and  _304
REMARK  116  A    between atoms: _309  and  _311
REMARK  117  A    between atoms: _311  and  _312
REMARK  118  A    between atoms: _311  and  _314
REMARK  119  A    between atoms: _314  and  _315
REMARK  120  A    between atoms: _315  and  _316
REMARK  121  A    between atoms: _319  and  _321
REMARK  122  A    between atoms: _321  and  _322
REMARK  123  A    between atoms: _321  and  _324
REMARK  124  A    between atoms: _324  and  _325
REMARK  125  A    between atoms: _327  and  _329
REMARK  126  A    between atoms: _329  and  _330
REMARK  127  A    between atoms: _329  and  _332
REMARK  128  A    between atoms: _332  and  _333
REMARK  129  A    between atoms: _343  and  _345
REMARK  130  A    between atoms: _345  and  _346
REMARK  131  A    between atoms: _345  and  _348
REMARK  132  A    between atoms: _348  and  _349
REMARK  133  A    between atoms: _349  and  _350
REMARK  134  A    between atoms: _353  and  _355
REMARK  135  A    between atoms: _355  and  _356
REMARK  136  A    between atoms: _355  and  _358
REMARK  137  A    between atoms: _358  and  _359
REMARK  138  A    between atoms: _362  and  _364
REMARK  139  A    between atoms: _364  and  _365
REMARK  140  A    between atoms: _364  and  _367
REMARK  141  A    between atoms: _367  and  _368
REMARK  142  A    between atoms: _371  and  _373
REMARK  143  A    between atoms: _373  and  _374
REMARK  144  A    between atoms: _373  and  _376
REMARK  145  A    between atoms: _376  and  _377
REMARK  146  A    between atoms: _377  and  _378
REMARK  147  A    between atoms: _378  and  _379
REMARK  148  A    between atoms: _388  and  _390
REMARK  149  A    between atoms: _390  and  _391
REMARK  150  A    between atoms: _394  and  _396
REMARK  151  A    between atoms: _396  and  _397
REMARK  152  A    between atoms: _400  and  _402
REMARK  153  A    between atoms: _402  and  _403
REMARK  154  A    between atoms: _406  and  _408
REMARK  155  A    between atoms: _408  and  _409
REMARK  156  A    between atoms: _408  and  _411
REMARK  157  A    between atoms: _411  and  _412
REMARK  158  A    between atoms: _414  and  _416
REMARK  159  A    between atoms: _416  and  _417
REMARK  160  A    between atoms: _419  and  _421
REMARK  161  A    between atoms: _421  and  _422
REMARK  162  A    between atoms: _421  and  _424
REMARK  163  A    between atoms: _424  and  _425
REMARK  164  A    between atoms: _435  and  _437
REMARK  165  A    between atoms: _437  and  _438
REMARK  166  A    between atoms: _437  and  _440
REMARK  167  A    between atoms: _440  and  _441
REMARK  168  A    between atoms: _444  and  _446
REMARK  169  A    between atoms: _446  and  _447
REMARK  170  A    between atoms: _446  and  _449
REMARK  171  A    between atoms: _449  and  _450
REMARK  172  A    between atoms: _456  and  _458
REMARK  173  A    between atoms: _458  and  _459
REMARK  174  A    between atoms: _458  and  _461
REMARK  175  A    between atoms: _461  and  _462
REMARK  176  A    between atoms: _462  and  _463
REMARK  177  A    between atoms: _468  and  _470
REMARK  178  A    between atoms: _470  and  _471
REMARK  179  A    between atoms: _470  and  _473
REMARK  180  A    between atoms: _473  and  _474
REMARK  181  A    between atoms: _484  and  _486
REMARK  182  A    between atoms: _486  and  _487
REMARK  183  A    between atoms: _486  and  _489
REMARK  184  A    between atoms: _489  and  _490
REMARK  185  A    between atoms: _501  and  _502
REMARK  186  A    between atoms: _507  and  _509
REMARK  187  A    between atoms: _509  and  _510
REMARK  188  A    between atoms: _509  and  _512
REMARK  189  A    between atoms: _512  and  _513
REMARK  190  A    between atoms: _513  and  _514
REMARK  191  A    between atoms: _517  and  _519
REMARK  192  A    between atoms: _519  and  _520
REMARK  193  A    between atoms: _519  and  _522
REMARK  194  A    between atoms: _522  and  _523
REMARK  195  A    between atoms: _523  and  _524
REMARK  196  A    between atoms: _524  and  _525
REMARK  197  A    between atoms: _525  and  _526
REMARK  198  A    between atoms: _530  and  _532
REMARK  199  A    between atoms: _532  and  _533
REMARK  200  A    between atoms: _535  and  _537
REMARK  201  A    between atoms: _537  and  _538
REMARK  202  A    between atoms: _537  and  _540
REMARK  203  A    between atoms: _540  and  _541
REMARK  204  A    between atoms: _541  and  _542
REMARK  205  A    between atoms: _545  and  _547
REMARK  206  A    between atoms: _547  and  _548
REMARK  207  A    between atoms: _547  and  _550
REMARK  208  A    between atoms: _550  and  _551
REMARK  209  A    between atoms: _556  and  _557
REMARK  210  A    between atoms: _559  and  _561
REMARK  211  A    between atoms: _561  and  _562
REMARK  212  A    between atoms: _561  and  _564
REMARK  213  A    between atoms: _564  and  _565
REMARK  214  A    between atoms: _565  and  _566
REMARK  215  A    between atoms: _571  and  _573
REMARK  216  A    between atoms: _573  and  _574
REMARK  217  A    between atoms: _573  and  _576
REMARK  218  A    between atoms: _576  and  _577
REMARK  219  A    between atoms: _583  and  _585
REMARK  220  A    between atoms: _585  and  _586
REMARK  221  A    between atoms: _588  and  _590
REMARK  222  A    between atoms: _590  and  _591
REMARK  223  A    between atoms: _590  and  _593
REMARK  224  A    between atoms: _593  and  _594
REMARK  225  A    between atoms: _604  and  _606
REMARK  226  A    between atoms: _606  and  _607
REMARK  227  A    between atoms: _606  and  _609
REMARK  228  A    between atoms: _609  and  _610
REMARK                            x       y       z     vdW  Elec       q    Type
REMARK                         _______ _______ _______ _____ _____    ______ ____
ROOT
ATOM      1  O   HOH     1      22.239  55.713   1.902  0.00  0.00    +0.000 OA
ENDROOT
TORSDOF 0
REMARK  Name = ../refined-set-2016/2jg0/2jg0_pocket.pdb
REMARK  228 active torsions:
REMARK  status: ('A' for Active; 'I' for Inactive)
REMARK    1  A    between atoms: _1  and  _3
REMARK    2  A    between atoms: _3  and  _4
REMARK    3  A    between atoms: _3  and  _6
REMARK    4  A    between atoms: _6  and  _7
REMARK    5  A    between atoms: _10  and  _12
REMARK    6  A    between atoms: _12  and  _13
REMARK    7  A    between atoms: _12  and  _15
REMARK    8  A    between atoms: _15  and  _16
REMARK    9  A    between atoms: _16  and  _17
REMARK   10  A    between atoms: _22  and  _24
REMARK   11  A    between atoms: _24  and  _25
REMARK   12  A    between atoms: _24  and  _27
REMARK   13  A    between atoms: _27  and  _28
REMARK   14  A    between atoms: _28  and  _29
REMARK   15  A    between atoms: _29  and  _30
REMARK   16  A    between atoms: _30  and  _31
REMARK   17  A    between atoms: _35  and  _37
REMARK   18  A    between atoms: _37  and  _38
REMARK   19  A    between atoms: _37  and  _40
REMARK   20  A    between atoms: _44  and  _45
REMARK   21  A    between atoms: _50  and  _52
REMARK   22  A    between atoms: _52  and  _53
REMARK   23  A    between atoms: _55  and  _57
REMARK   24  A    between atoms: _57  and  _58
REMARK   25  A    between atoms: _57  and  _60
REMARK   26  A    between atoms: _60  and  _61
REMARK   27  A    between atoms: _61  and  _62
REMARK   28  A    between atoms: _62  and  _63
REMARK   29  A    between atoms: _72  and  _74
REMARK   30  A    between atoms: _74  and  _75
REMARK   31  A    between atoms: _74  and  _77
REMARK   32  A    between atoms: _77  and  _78
REMARK   33  A    between atoms: _84  and  _86
REMARK   34  A    between atoms: _86  and  _87
REMARK   35  A    between atoms: _86  and  _89
REMARK   36  A    between atoms: _89  and  _90
REMARK   37  A    between atoms: _90  and  _91
REMARK   38  A    between atoms: _91  and  _92
REMARK   39  A    between atoms: _101  and  _103
REMARK   40  A    between atoms: _103  and  _104
REMARK   41  A    between atoms: _103  and  _106
REMARK   42  A    between atoms: _106  and  _107
REMARK   43  A    between atoms: _107  and  _108
REMARK   44  A    between atoms: _111  and  _113
REMARK   45  A    between atoms: _113  and  _114
REMARK   46  A    between atoms: _113  and  _116
REMARK   47  A    between atoms: _119  and  _121
REMARK   48  A    between atoms: _121  and  _122
REMARK   49  A    between atoms: _121  and  _124
REMARK   50  A    between atoms: _124  and  _125
REMARK   51  A    between atoms: _130  and  _131
REMARK   52  A    between atoms: _133  and  _135
REMARK   53  A    between atoms: _135  and  _136
REMARK   54  A    between atoms: _135  and  _138
REMARK   55  A    between atoms: _138  and  _139
REMARK   56  A    between atoms: _144  and  _145
REMARK   57  A    between atoms: _147  and  _149
REMARK   58  A    between atoms: _149  and  _150
REMARK   59  A    between atoms: _149  and  _152
REMARK   60  A    between atoms: _152  and  _153
REMARK   61  A    between atoms: _163  and  _165
REMARK   62  A    between atoms: _165  and  _166
REMARK   63  A    between atoms: _165  and  _168
REMARK   64  A    between atoms: _168  and  _169
REMARK   65  A    between atoms: _172  and  _174
REMARK   66  A    between atoms: _174  and  _175
REMARK   67  A    between atoms: _174  and  _177
REMARK   68  A    between atoms: _177  and  _178
REMARK   69  A    between atoms: _180  and  _182
REMARK   70  A    between atoms: _182  and  _183
REMARK   71  A    between atoms: _182  and  _185
REMARK   72  A    between atoms: _185  and  _186
REMARK   73  A    between atoms: _191  and  _193
REMARK   74  A    between atoms: _193  and  _194
REMARK   75  A    between atoms: _196  and  _198
REMARK   76  A    between atoms: _198  and  _199
REMARK   77  A    between atoms: _198  and  _201
REMARK   78  A    between atoms: _201  and  _202
REMARK   79  A    between atoms: _207  and  _208
REMARK   80  A    between atoms: _210  and  _212
REMARK   81  A    between atoms: _212  and  _213
REMARK   82  A    between atoms: _212  and  _215
REMARK   83  A    between atoms: _215  and  _216
REMARK   84  A    between atoms: _221  and  _222
REMARK   85  A    between atoms: _224  and  _226
REMARK   86  A    between atoms: _226  and  _227
REMARK   87  A    between atoms: _226  and  _229
REMARK   88  A    between atoms: _229  and  _230
REMARK   89  A    between atoms: _232  and  _234
REMARK   90  A    between atoms: _234  and  _235
REMARK   91  A    between atoms: _234  and  _237
REMARK   92  A    between atoms: _237  and  _238
REMARK   93  A    between atoms: _238  and  _239
REMARK   94  A    between atoms: _239  and  _240
REMARK   95  A    between atoms: _249  and  _251
REMARK   96  A    between atoms: _251  and  _252
REMARK   97  A    between atoms: _251  and  _254
REMARK   98  A    between atoms: _254  and  _255
REMARK   99  A    between atoms: _257  and  _259
REMARK  100  A    between atoms: _259  and  _260
REMARK  101  A    between atoms: _259  and  _262
REMARK  102  A    between atoms: _262  and  _263
REMARK  103  A    between atoms: _263  and  _264
REMARK  104  A    between atoms: _270  and  _271
REMARK  105  A    between atoms: _276  and  _278
REMARK  106  A    between atoms: _278  and  _279
REMARK  107  A    between atoms: _278  and  _281
REMARK  108  A    between atoms: _281  and  _282
REMARK  109  A    between atoms: _285  and  _287
REMARK  110  A    between atoms: _287  and  _288
REMARK  111  A    between atoms: _287  and  _290
REMARK  112  A    between atoms: _290  and  _291
REMARK  113  A    between atoms: _291  and  _292
REMARK  114  A    between atoms: _292  and  _293
REMARK  115  A    between atoms: _303  and  _304
REMARK  116  A    between atoms: _309  and  _311
REMARK  117  A    between atoms: _311  and  _312
REMARK  118  A    between atoms: _311  and  _314
REMARK  119  A    between atoms: _314  and  _315
REMARK  120  A    between atoms: _315  and  _316
REMARK  121  A    between atoms: _319  and  _321
REMARK  122  A    between atoms: _321  and  _322
REMARK  123  A    between atoms: _321  and  _324
REMARK  124  A    between atoms: _324  and  _325
REMARK  125  A    between atoms: _327  and  _329
REMARK  126  A    between atoms: _329  and  _330
REMARK  127  A    between atoms: _329  and  _332
REMARK  128  A    between atoms: _332  and  _333
REMARK  129  A    between atoms: _343  and  _345
REMARK  130  A    between atoms: _345  and  _346
REMARK  131  A    between atoms: _345  and  _348
REMARK  132  A    between atoms: _348  and  _349
REMARK  133  A    between atoms: _349  and  _350
REMARK  134  A    between atoms: _353  and  _355
REMARK  135  A    between atoms: _355  and  _356
REMARK  136  A    between atoms: _355  and  _358
REMARK  137  A    between atoms: _358  and  _359
REMARK  138  A    between atoms: _362  and  _364
REMARK  139  A    between atoms: _364  and  _365
REMARK  140  A    between atoms: _364  and  _367
REMARK  141  A    between atoms: _367  and  _368
REMARK  142  A    between atoms: _371  and  _373
REMARK  143  A    between atoms: _373  and  _374
REMARK  144  A    between atoms: _373  and  _376
REMARK  145  A    between atoms: _376  and  _377
REMARK  146  A    between atoms: _377  and  _378
REMARK  147  A    between atoms: _378  and  _379
REMARK  148  A    between atoms: _388  and  _390
REMARK  149  A    between atoms: _390  and  _391
REMARK  150  A    between atoms: _394  and  _396
REMARK  151  A    between atoms: _396  and  _397
REMARK  152  A    between atoms: _400  and  _402
REMARK  153  A    between atoms: _402  and  _403
REMARK  154  A    between atoms: _406  and  _408
REMARK  155  A    between atoms: _408  and  _409
REMARK  156  A    between atoms: _408  and  _411
REMARK  157  A    between atoms: _411  and  _412
REMARK  158  A    between atoms: _414  and  _416
REMARK  159  A    between atoms: _416  and  _417
REMARK  160  A    between atoms: _419  and  _421
REMARK  161  A    between atoms: _421  and  _422
REMARK  162  A    between atoms: _421  and  _424
REMARK  163  A    between atoms: _424  and  _425
REMARK  164  A    between atoms: _435  and  _437
REMARK  165  A    between atoms: _437  and  _438
REMARK  166  A    between atoms: _437  and  _440
REMARK  167  A    between atoms: _440  and  _441
REMARK  168  A    between atoms: _444  and  _446
REMARK  169  A    between atoms: _446  and  _447
REMARK  170  A    between atoms: _446  and  _449
REMARK  171  A    between atoms: _449  and  _450
REMARK  172  A    between atoms: _456  and  _458
REMARK  173  A    between atoms: _458  and  _459
REMARK  174  A    between atoms: _458  and  _461
REMARK  175  A    between atoms: _461  and  _462
REMARK  176  A    between atoms: _462  and  _463
REMARK  177  A    between atoms: _468  and  _470
REMARK  178  A    between atoms: _470  and  _471
REMARK  179  A    between atoms: _470  and  _473
REMARK  180  A    between atoms: _473  and  _474
REMARK  181  A    between atoms: _484  and  _486
REMARK  182  A    between atoms: _486  and  _487
REMARK  183  A    between atoms: _486  and  _489
REMARK  184  A    between atoms: _489  and  _490
REMARK  185  A    between atoms: _501  and  _502
REMARK  186  A    between atoms: _507  and  _509
REMARK  187  A    between atoms: _509  and  _510
REMARK  188  A    between atoms: _509  and  _512
REMARK  189  A    between atoms: _512  and  _513
REMARK  190  A    between atoms: _513  and  _514
REMARK  191  A    between atoms: _517  and  _519
REMARK  192  A    between atoms: _519  and  _520
REMARK  193  A    between atoms: _519  and  _522
REMARK  194  A    between atoms: _522  and  _523
REMARK  195  A    between atoms: _523  and  _524
REMARK  196  A    between atoms: _524  and  _525
REMARK  197  A    between atoms: _525  and  _526
REMARK  198  A    between atoms: _530  and  _532
REMARK  199  A    between atoms: _532  and  _533
REMARK  200  A    between atoms: _535  and  _537
REMARK  201  A    between atoms: _537  and  _538
REMARK  202  A    between atoms: _537  and  _540
REMARK  203  A    between atoms: _540  and  _541
REMARK  204  A    between atoms: _541  and  _542
REMARK  205  A    between atoms: _545  and  _547
REMARK  206  A    between atoms: _547  and  _548
REMARK  207  A    between atoms: _547  and  _550
REMARK  208  A    between atoms: _550  and  _551
REMARK  209  A    between atoms: _556  and  _557
REMARK  210  A    between atoms: _559  and  _561
REMARK  211  A    between atoms: _561  and  _562
REMARK  212  A    between atoms: _561  and  _564
REMARK  213  A    between atoms: _564  and  _565
REMARK  214  A    between atoms: _565  and  _566
REMARK  215  A    between atoms: _571  and  _573
REMARK  216  A    between atoms: _573  and  _574
REMARK  217  A    between atoms: _573  and  _576
REMARK  218  A    between atoms: _576  and  _577
REMARK  219  A    between atoms: _583  and  _585
REMARK  220  A    between atoms: _585  and  _586
REMARK  221  A    between atoms: _588  and  _590
REMARK  222  A    between atoms: _590  and  _591
REMARK  223  A    between atoms: _590  and  _593
REMARK  224  A    between atoms: _593  and  _594
REMARK  225  A    between atoms: _604  and  _606
REMARK  226  A    between atoms: _606  and  _607
REMARK  227  A    between atoms: _606  and  _609
REMARK  228  A    between atoms: _609  and  _610
REMARK                            x       y       z     vdW  Elec       q    Type
REMARK                         _______ _______ _______ _____ _____    ______ ____
ROOT
ATOM      1  O   HOH     1      25.231  53.046   0.361  0.00  0.00    +0.000 OA
ENDROOT
TORSDOF 0
REMARK  Name = ../refined-set-2016/2jg0/2jg0_pocket.pdb
REMARK  228 active torsions:
REMARK  status: ('A' for Active; 'I' for Inactive)
REMARK    1  A    between atoms: _1  and  _3
REMARK    2  A    between atoms: _3  and  _4
REMARK    3  A    between atoms: _3  and  _6
REMARK    4  A    between atoms: _6  and  _7
REMARK    5  A    between atoms: _10  and  _12
REMARK    6  A    between atoms: _12  and  _13
REMARK    7  A    between atoms: _12  and  _15
REMARK    8  A    between atoms: _15  and  _16
REMARK    9  A    between atoms: _16  and  _17
REMARK   10  A    between atoms: _22  and  _24
REMARK   11  A    between atoms: _24  and  _25
REMARK   12  A    between atoms: _24  and  _27
REMARK   13  A    between atoms: _27  and  _28
REMARK   14  A    between atoms: _28  and  _29
REMARK   15  A    between atoms: _29  and  _30
REMARK   16  A    between atoms: _30  and  _31
REMARK   17  A    between atoms: _35  and  _37
REMARK   18  A    between atoms: _37  and  _38
REMARK   19  A    between atoms: _37  and  _40
REMARK   20  A    between atoms: _44  and  _45
REMARK   21  A    between atoms: _50  and  _52
REMARK   22  A    between atoms: _52  and  _53
REMARK   23  A    between atoms: _55  and  _57
REMARK   24  A    between atoms: _57  and  _58
REMARK   25  A    between atoms: _57  and  _60
REMARK   26  A    between atoms: _60  and  _61
REMARK   27  A    between atoms: _61  and  _62
REMARK   28  A    between atoms: _62  and  _63
REMARK   29  A    between atoms: _72  and  _74
REMARK   30  A    between atoms: _74  and  _75
REMARK   31  A    between atoms: _74  and  _77
REMARK   32  A    between atoms: _77  and  _78
REMARK   33  A    between atoms: _84  and  _86
REMARK   34  A    between atoms: _86  and  _87
REMARK   35  A    between atoms: _86  and  _89
REMARK   36  A    between atoms: _89  and  _90
REMARK   37  A    between atoms: _90  and  _91
REMARK   38  A    between atoms: _91  and  _92
REMARK   39  A    between atoms: _101  and  _103
REMARK   40  A    between atoms: _103  and  _104
REMARK   41  A    between atoms: _103  and  _106
REMARK   42  A    between atoms: _106  and  _107
REMARK   43  A    between atoms: _107  and  _108
REMARK   44  A    between atoms: _111  and  _113
REMARK   45  A    between atoms: _113  and  _114
REMARK   46  A    between atoms: _113  and  _116
REMARK   47  A    between atoms: _119  and  _121
REMARK   48  A    between atoms: _121  and  _122
REMARK   49  A    between atoms: _121  and  _124
REMARK   50  A    between atoms: _124  and  _125
REMARK   51  A    between atoms: _130  and  _131
REMARK   52  A    between atoms: _133  and  _135
REMARK   53  A    between atoms: _135  and  _136
REMARK   54  A    between atoms: _135  and  _138
REMARK   55  A    between atoms: _138  and  _139
REMARK   56  A    between atoms: _144  and  _145
REMARK   57  A    between atoms: _147  and  _149
REMARK   58  A    between atoms: _149  and  _150
REMARK   59  A    between atoms: _149  and  _152
REMARK   60  A    between atoms: _152  and  _153
REMARK   61  A    between atoms: _163  and  _165
REMARK   62  A    between atoms: _165  and  _166
REMARK   63  A    between atoms: _165  and  _168
REMARK   64  A    between atoms: _168  and  _169
REMARK   65  A    between atoms: _172  and  _174
REMARK   66  A    between atoms: _174  and  _175
REMARK   67  A    between atoms: _174  and  _177
REMARK   68  A    between atoms: _177  and  _178
REMARK   69  A    between atoms: _180  and  _182
REMARK   70  A    between atoms: _182  and  _183
REMARK   71  A    between atoms: _182  and  _185
REMARK   72  A    between atoms: _185  and  _186
REMARK   73  A    between atoms: _191  and  _193
REMARK   74  A    between atoms: _193  and  _194
REMARK   75  A    between atoms: _196  and  _198
REMARK   76  A    between atoms: _198  and  _199
REMARK   77  A    between atoms: _198  and  _201
REMARK   78  A    between atoms: _201  and  _202
REMARK   79  A    between atoms: _207  and  _208
REMARK   80  A    between atoms: _210  and  _212
REMARK   81  A    between atoms: _212  and  _213
REMARK   82  A    between atoms: _212  and  _215
REMARK   83  A    between atoms: _215  and  _216
REMARK   84  A    between atoms: _221  and  _222
REMARK   85  A    between atoms: _224  and  _226
REMARK   86  A    between atoms: _226  and  _227
REMARK   87  A    between atoms: _226  and  _229
REMARK   88  A    between atoms: _229  and  _230
REMARK   89  A    between atoms: _232  and  _234
REMARK   90  A    between atoms: _234  and  _235
REMARK   91  A    between atoms: _234  and  _237
REMARK   92  A    between atoms: _237  and  _238
REMARK   93  A    between atoms: _238  and  _239
REMARK   94  A    between atoms: _239  and  _240
REMARK   95  A    between atoms: _249  and  _251
REMARK   96  A    between atoms: _251  and  _252
REMARK   97  A    between atoms: _251  and  _254
REMARK   98  A    between atoms: _254  and  _255
REMARK   99  A    between atoms: _257  and  _259
REMARK  100  A    between atoms: _259  and  _260
REMARK  101  A    between atoms: _259  and  _262
REMARK  102  A    between atoms: _262  and  _263
REMARK  103  A    between atoms: _263  and  _264
REMARK  104  A    between atoms: _270  and  _271
REMARK  105  A    between atoms: _276  and  _278
REMARK  106  A    between atoms: _278  and  _279
REMARK  107  A    between atoms: _278  and  _281
REMARK  108  A    between atoms: _281  and  _282
REMARK  109  A    between atoms: _285  and  _287
REMARK  110  A    between atoms: _287  and  _288
REMARK  111  A    between atoms: _287  and  _290
REMARK  112  A    between atoms: _290  and  _291
REMARK  113  A    between atoms: _291  and  _292
REMARK  114  A    between atoms: _292  and  _293
REMARK  115  A    between atoms: _303  and  _304
REMARK  116  A    between atoms: _309  and  _311
REMARK  117  A    between atoms: _311  and  _312
REMARK  118  A    between atoms: _311  and  _314
REMARK  119  A    between atoms: _314  and  _315
REMARK  120  A    between atoms: _315  and  _316
REMARK  121  A    between atoms: _319  and  _321
REMARK  122  A    between atoms: _321  and  _322
REMARK  123  A    between atoms: _321  and  _324
REMARK  124  A    between atoms: _324  and  _325
REMARK  125  A    between atoms: _327  and  _329
REMARK  126  A    between atoms: _329  and  _330
REMARK  127  A    between atoms: _329  and  _332
REMARK  128  A    between atoms: _332  and  _333
REMARK  129  A    between atoms: _343  and  _345
REMARK  130  A    between atoms: _345  and  _346
REMARK  131  A    between atoms: _345  and  _348
REMARK  132  A    between atoms: _348  and  _349
REMARK  133  A    between atoms: _349  and  _350
REMARK  134  A    between atoms: _353  and  _355
REMARK  135  A    between atoms: _355  and  _356
REMARK  136  A    between atoms: _355  and  _358
REMARK  137  A    between atoms: _358  and  _359
REMARK  138  A    between atoms: _362  and  _364
REMARK  139  A    between atoms: _364  and  _365
REMARK  140  A    between atoms: _364  and  _367
REMARK  141  A    between atoms: _367  and  _368
REMARK  142  A    between atoms: _371  and  _373
REMARK  143  A    between atoms: _373  and  _374
REMARK  144  A    between atoms: _373  and  _376
REMARK  145  A    between atoms: _376  and  _377
REMARK  146  A    between atoms: _377  and  _378
REMARK  147  A    between atoms: _378  and  _379
REMARK  148  A    between atoms: _388  and  _390
REMARK  149  A    between atoms: _390  and  _391
REMARK  150  A    between atoms: _394  and  _396
REMARK  151  A    between atoms: _396  and  _397
REMARK  152  A    between atoms: _400  and  _402
REMARK  153  A    between atoms: _402  and  _403
REMARK  154  A    between atoms: _406  and  _408
REMARK  155  A    between atoms: _408  and  _409
REMARK  156  A    between atoms: _408  and  _411
REMARK  157  A    between atoms: _411  and  _412
REMARK  158  A    between atoms: _414  and  _416
REMARK  159  A    between atoms: _416  and  _417
REMARK  160  A    between atoms: _419  and  _421
REMARK  161  A    between atoms: _421  and  _422
REMARK  162  A    between atoms: _421  and  _424
REMARK  163  A    between atoms: _424  and  _425
REMARK  164  A    between atoms: _435  and  _437
REMARK  165  A    between atoms: _437  and  _438
REMARK  166  A    between atoms: _437  and  _440
REMARK  167  A    between atoms: _440  and  _441
REMARK  168  A    between atoms: _444  and  _446
REMARK  169  A    between atoms: _446  and  _447
REMARK  170  A    between atoms: _446  and  _449
REMARK  171  A    between atoms: _449  and  _450
REMARK  172  A    between atoms: _456  and  _458
REMARK  173  A    between atoms: _458  and  _459
REMARK  174  A    between atoms: _458  and  _461
REMARK  175  A    between atoms: _461  and  _462
REMARK  176  A    between atoms: _462  and  _463
REMARK  177  A    between atoms: _468  and  _470
REMARK  178  A    between atoms: _470  and  _471
REMARK  179  A    between atoms: _470  and  _473
REMARK  180  A    between atoms: _473  and  _474
REMARK  181  A    between atoms: _484  and  _486
REMARK  182  A    between atoms: _486  and  _487
REMARK  183  A    between atoms: _486  and  _489
REMARK  184  A    between atoms: _489  and  _490
REMARK  185  A    between atoms: _501  and  _502
REMARK  186  A    between atoms: _507  and  _509
REMARK  187  A    between atoms: _509  and  _510
REMARK  188  A    between atoms: _509  and  _512
REMARK  189  A    between atoms: _512  and  _513
REMARK  190  A    between atoms: _513  and  _514
REMARK  191  A    between atoms: _517  and  _519
REMARK  192  A    between atoms: _519  and  _520
REMARK  193  A    between atoms: _519  and  _522
REMARK  194  A    between atoms: _522  and  _523
REMARK  195  A    between atoms: _523  and  _524
REMARK  196  A    between atoms: _524  and  _525
REMARK  197  A    between atoms: _525  and  _526
REMARK  198  A    between atoms: _530  and  _532
REMARK  199  A    between atoms: _532  and  _533
REMARK  200  A    between atoms: _535  and  _537
REMARK  201  A    between atoms: _537  and  _538
REMARK  202  A    between atoms: _537  and  _540
REMARK  203  A    between atoms: _540  and  _541
REMARK  204  A    between atoms: _541  and  _542
REMARK  205  A    between atoms: _545  and  _547
REMARK  206  A    between atoms: _547  and  _548
REMARK  207  A    between atoms: _547  and  _550
REMARK  208  A    between atoms: _550  and  _551
REMARK  209  A    between atoms: _556  and  _557
REMARK  210  A    between atoms: _559  and  _561
REMARK  211  A    between atoms: _561  and  _562
REMARK  212  A    between atoms: _561  and  _564
REMARK  213  A    between atoms: _564  and  _565
REMARK  214  A    between atoms: _565  and  _566
REMARK  215  A    between atoms: _571  and  _573
REMARK  216  A    between atoms: _573  and  _574
REMARK  217  A    between atoms: _573  and  _576
REMARK  218  A    between atoms: _576  and  _577
REMARK  219  A    between atoms: _583  and  _585
REMARK  220  A    between atoms: _585  and  _586
REMARK  221  A    between atoms: _588  and  _590
REMARK  222  A    between atoms: _590  and  _591
REMARK  223  A    between atoms: _590  and  _593
REMARK  224  A    between atoms: _593  and  _594
REMARK  225  A    between atoms: _604  and  _606
REMARK  226  A    between atoms: _606  and  _607
REMARK  227  A    between atoms: _606  and  _609
REMARK  228  A    between atoms: _609  and  _610
REMARK                            x       y       z     vdW  Elec       q    Type
REMARK                         _______ _______ _______ _____ _____    ______ ____
ROOT
ATOM      1  O   HOH     1      16.630  46.858  10.517  0.00  0.00    +0.000 OA
ENDROOT
TORSDOF 0
REMARK  Name = ../refined-set-2016/2jg0/2jg0_pocket.pdb
REMARK  228 active torsions:
REMARK  status: ('A' for Active; 'I' for Inactive)
REMARK    1  A    between atoms: _1  and  _3
REMARK    2  A    between atoms: _3  and  _4
REMARK    3  A    between atoms: _3  and  _6
REMARK    4  A    between atoms: _6  and  _7
REMARK    5  A    between atoms: _10  and  _12
REMARK    6  A    between atoms: _12  and  _13
REMARK    7  A    between atoms: _12  and  _15
REMARK    8  A    between atoms: _15  and  _16
REMARK    9  A    between atoms: _16  and  _17
REMARK   10  A    between atoms: _22  and  _24
REMARK   11  A    between atoms: _24  and  _25
REMARK   12  A    between atoms: _24  and  _27
REMARK   13  A    between atoms: _27  and  _28
REMARK   14  A    between atoms: _28  and  _29
REMARK   15  A    between atoms: _29  and  _30
REMARK   16  A    between atoms: _30  and  _31
REMARK   17  A    between atoms: _35  and  _37
REMARK   18  A    between atoms: _37  and  _38
REMARK   19  A    between atoms: _37  and  _40
REMARK   20  A    between atoms: _44  and  _45
REMARK   21  A    between atoms: _50  and  _52
REMARK   22  A    between atoms: _52  and  _53
REMARK   23  A    between atoms: _55  and  _57
REMARK   24  A    between atoms: _57  and  _58
REMARK   25  A    between atoms: _57  and  _60
REMARK   26  A    between atoms: _60  and  _61
REMARK   27  A    between atoms: _61  and  _62
REMARK   28  A    between atoms: _62  and  _63
REMARK   29  A    between atoms: _72  and  _74
REMARK   30  A    between atoms: _74  and  _75
REMARK   31  A    between atoms: _74  and  _77
REMARK   32  A    between atoms: _77  and  _78
REMARK   33  A    between atoms: _84  and  _86
REMARK   34  A    between atoms: _86  and  _87
REMARK   35  A    between atoms: _86  and  _89
REMARK   36  A    between atoms: _89  and  _90
REMARK   37  A    between atoms: _90  and  _91
REMARK   38  A    between atoms: _91  and  _92
REMARK   39  A    between atoms: _101  and  _103
REMARK   40  A    between atoms: _103  and  _104
REMARK   41  A    between atoms: _103  and  _106
REMARK   42  A    between atoms: _106  and  _107
REMARK   43  A    between atoms: _107  and  _108
REMARK   44  A    between atoms: _111  and  _113
REMARK   45  A    between atoms: _113  and  _114
REMARK   46  A    between atoms: _113  and  _116
REMARK   47  A    between atoms: _119  and  _121
REMARK   48  A    between atoms: _121  and  _122
REMARK   49  A    between atoms: _121  and  _124
REMARK   50  A    between atoms: _124  and  _125
REMARK   51  A    between atoms: _130  and  _131
REMARK   52  A    between atoms: _133  and  _135
REMARK   53  A    between atoms: _135  and  _136
REMARK   54  A    between atoms: _135  and  _138
REMARK   55  A    between atoms: _138  and  _139
REMARK   56  A    between atoms: _144  and  _145
REMARK   57  A    between atoms: _147  and  _149
REMARK   58  A    between atoms: _149  and  _150
REMARK   59  A    between atoms: _149  and  _152
REMARK   60  A    between atoms: _152  and  _153
REMARK   61  A    between atoms: _163  and  _165
REMARK   62  A    between atoms: _165  and  _166
REMARK   63  A    between atoms: _165  and  _168
REMARK   64  A    between atoms: _168  and  _169
REMARK   65  A    between atoms: _172  and  _174
REMARK   66  A    between atoms: _174  and  _175
REMARK   67  A    between atoms: _174  and  _177
REMARK   68  A    between atoms: _177  and  _178
REMARK   69  A    between atoms: _180  and  _182
REMARK   70  A    between atoms: _182  and  _183
REMARK   71  A    between atoms: _182  and  _185
REMARK   72  A    between atoms: _185  and  _186
REMARK   73  A    between atoms: _191  and  _193
REMARK   74  A    between atoms: _193  and  _194
REMARK   75  A    between atoms: _196  and  _198
REMARK   76  A    between atoms: _198  and  _199
REMARK   77  A    between atoms: _198  and  _201
REMARK   78  A    between atoms: _201  and  _202
REMARK   79  A    between atoms: _207  and  _208
REMARK   80  A    between atoms: _210  and  _212
REMARK   81  A    between atoms: _212  and  _213
REMARK   82  A    between atoms: _212  and  _215
REMARK   83  A    between atoms: _215  and  _216
REMARK   84  A    between atoms: _221  and  _222
REMARK   85  A    between atoms: _224  and  _226
REMARK   86  A    between atoms: _226  and  _227
REMARK   87  A    between atoms: _226  and  _229
REMARK   88  A    between atoms: _229  and  _230
REMARK   89  A    between atoms: _232  and  _234
REMARK   90  A    between atoms: _234  and  _235
REMARK   91  A    between atoms: _234  and  _237
REMARK   92  A    between atoms: _237  and  _238
REMARK   93  A    between atoms: _238  and  _239
REMARK   94  A    between atoms: _239  and  _240
REMARK   95  A    between atoms: _249  and  _251
REMARK   96  A    between atoms: _251  and  _252
REMARK   97  A    between atoms: _251  and  _254
REMARK   98  A    between atoms: _254  and  _255
REMARK   99  A    between atoms: _257  and  _259
REMARK  100  A    between atoms: _259  and  _260
REMARK  101  A    between atoms: _259  and  _262
REMARK  102  A    between atoms: _262  and  _263
REMARK  103  A    between atoms: _263  and  _264
REMARK  104  A    between atoms: _270  and  _271
REMARK  105  A    between atoms: _276  and  _278
REMARK  106  A    between atoms: _278  and  _279
REMARK  107  A    between atoms: _278  and  _281
REMARK  108  A    between atoms: _281  and  _282
REMARK  109  A    between atoms: _285  and  _287
REMARK  110  A    between atoms: _287  and  _288
REMARK  111  A    between atoms: _287  and  _290
REMARK  112  A    between atoms: _290  and  _291
REMARK  113  A    between atoms: _291  and  _292
REMARK  114  A    between atoms: _292  and  _293
REMARK  115  A    between atoms: _303  and  _304
REMARK  116  A    between atoms: _309  and  _311
REMARK  117  A    between atoms: _311  and  _312
REMARK  118  A    between atoms: _311  and  _314
REMARK  119  A    between atoms: _314  and  _315
REMARK  120  A    between atoms: _315  and  _316
REMARK  121  A    between atoms: _319  and  _321
REMARK  122  A    between atoms: _321  and  _322
REMARK  123  A    between atoms: _321  and  _324
REMARK  124  A    between atoms: _324  and  _325
REMARK  125  A    between atoms: _327  and  _329
REMARK  126  A    between atoms: _329  and  _330
REMARK  127  A    between atoms: _329  and  _332
REMARK  128  A    between atoms: _332  and  _333
REMARK  129  A    between atoms: _343  and  _345
REMARK  130  A    between atoms: _345  and  _346
REMARK  131  A    between atoms: _345  and  _348
REMARK  132  A    between atoms: _348  and  _349
REMARK  133  A    between atoms: _349  and  _350
REMARK  134  A    between atoms: _353  and  _355
REMARK  135  A    between atoms: _355  and  _356
REMARK  136  A    between atoms: _355  and  _358
REMARK  137  A    between atoms: _358  and  _359
REMARK  138  A    between atoms: _362  and  _364
REMARK  139  A    between atoms: _364  and  _365
REMARK  140  A    between atoms: _364  and  _367
REMARK  141  A    between atoms: _367  and  _368
REMARK  142  A    between atoms: _371  and  _373
REMARK  143  A    between atoms: _373  and  _374
REMARK  144  A    between atoms: _373  and  _376
REMARK  145  A    between atoms: _376  and  _377
REMARK  146  A    between atoms: _377  and  _378
REMARK  147  A    between atoms: _378  and  _379
REMARK  148  A    between atoms: _388  and  _390
REMARK  149  A    between atoms: _390  and  _391
REMARK  150  A    between atoms: _394  and  _396
REMARK  151  A    between atoms: _396  and  _397
REMARK  152  A    between atoms: _400  and  _402
REMARK  153  A    between atoms: _402  and  _403
REMARK  154  A    between atoms: _406  and  _408
REMARK  155  A    between atoms: _408  and  _409
REMARK  156  A    between atoms: _408  and  _411
REMARK  157  A    between atoms: _411  and  _412
REMARK  158  A    between atoms: _414  and  _416
REMARK  159  A    between atoms: _416  and  _417
REMARK  160  A    between atoms: _419  and  _421
REMARK  161  A    between atoms: _421  and  _422
REMARK  162  A    between atoms: _421  and  _424
REMARK  163  A    between atoms: _424  and  _425
REMARK  164  A    between atoms: _435  and  _437
REMARK  165  A    between atoms: _437  and  _438
REMARK  166  A    between atoms: _437  and  _440
REMARK  167  A    between atoms: _440  and  _441
REMARK  168  A    between atoms: _444  and  _446
REMARK  169  A    between atoms: _446  and  _447
REMARK  170  A    between atoms: _446  and  _449
REMARK  171  A    between atoms: _449  and  _450
REMARK  172  A    between atoms: _456  and  _458
REMARK  173  A    between atoms: _458  and  _459
REMARK  174  A    between atoms: _458  and  _461
REMARK  175  A    between atoms: _461  and  _462
REMARK  176  A    between atoms: _462  and  _463
REMARK  177  A    between atoms: _468  and  _470
REMARK  178  A    between atoms: _470  and  _471
REMARK  179  A    between atoms: _470  and  _473
REMARK  180  A    between atoms: _473  and  _474
REMARK  181  A    between atoms: _484  and  _486
REMARK  182  A    between atoms: _486  and  _487
REMARK  183  A    between atoms: _486  and  _489
REMARK  184  A    between atoms: _489  and  _490
REMARK  185  A    between atoms: _501  and  _502
REMARK  186  A    between atoms: _507  and  _509
REMARK  187  A    between atoms: _509  and  _510
REMARK  188  A    between atoms: _509  and  _512
REMARK  189  A    between atoms: _512  and  _513
REMARK  190  A    between atoms: _513  and  _514
REMARK  191  A    between atoms: _517  and  _519
REMARK  192  A    between atoms: _519  and  _520
REMARK  193  A    between atoms: _519  and  _522
REMARK  194  A    between atoms: _522  and  _523
REMARK  195  A    between atoms: _523  and  _524
REMARK  196  A    between atoms: _524  and  _525
REMARK  197  A    between atoms: _525  and  _526
REMARK  198  A    between atoms: _530  and  _532
REMARK  199  A    between atoms: _532  and  _533
REMARK  200  A    between atoms: _535  and  _537
REMARK  201  A    between atoms: _537  and  _538
REMARK  202  A    between atoms: _537  and  _540
REMARK  203  A    between atoms: _540  and  _541
REMARK  204  A    between atoms: _541  and  _542
REMARK  205  A    between atoms: _545  and  _547
REMARK  206  A    between atoms: _547  and  _548
REMARK  207  A    between atoms: _547  and  _550
REMARK  208  A    between atoms: _550  and  _551
REMARK  209  A    between atoms: _556  and  _557
REMARK  210  A    between atoms: _559  and  _561
REMARK  211  A    between atoms: _561  and  _562
REMARK  212  A    between atoms: _561  and  _564
REMARK  213  A    between atoms: _564  and  _565
REMARK  214  A    between atoms: _565  and  _566
REMARK  215  A    between atoms: _571  and  _573
REMARK  216  A    between atoms: _573  and  _574
REMARK  217  A    between atoms: _573  and  _576
REMARK  218  A    between atoms: _576  and  _577
REMARK  219  A    between atoms: _583  and  _585
REMARK  220  A    between atoms: _585  and  _586
REMARK  221  A    between atoms: _588  and  _590
REMARK  222  A    between atoms: _590  and  _591
REMARK  223  A    between atoms: _590  and  _593
REMARK  224  A    between atoms: _593  and  _594
REMARK  225  A    between atoms: _604  and  _606
REMARK  226  A    between atoms: _606  and  _607
REMARK  227  A    between atoms: _606  and  _609
REMARK  228  A    between atoms: _609  and  _610
REMARK                            x       y       z     vdW  Elec       q    Type
REMARK                         _______ _______ _______ _____ _____    ______ ____
ROOT
ATOM      1  O   HOH     1      21.326  48.499   6.085  0.00  0.00    +0.000 OA
ENDROOT
TORSDOF 0
REMARK  Name = ../refined-set-2016/2jg0/2jg0_pocket.pdb
REMARK  228 active torsions:
REMARK  status: ('A' for Active; 'I' for Inactive)
REMARK    1  A    between atoms: _1  and  _3
REMARK    2  A    between atoms: _3  and  _4
REMARK    3  A    between atoms: _3  and  _6
REMARK    4  A    between atoms: _6  and  _7
REMARK    5  A    between atoms: _10  and  _12
REMARK    6  A    between atoms: _12  and  _13
REMARK    7  A    between atoms: _12  and  _15
REMARK    8  A    between atoms: _15  and  _16
REMARK    9  A    between atoms: _16  and  _17
REMARK   10  A    between atoms: _22  and  _24
REMARK   11  A    between atoms: _24  and  _25
REMARK   12  A    between atoms: _24  and  _27
REMARK   13  A    between atoms: _27  and  _28
REMARK   14  A    between atoms: _28  and  _29
REMARK   15  A    between atoms: _29  and  _30
REMARK   16  A    between atoms: _30  and  _31
REMARK   17  A    between atoms: _35  and  _37
REMARK   18  A    between atoms: _37  and  _38
REMARK   19  A    between atoms: _37  and  _40
REMARK   20  A    between atoms: _44  and  _45
REMARK   21  A    between atoms: _50  and  _52
REMARK   22  A    between atoms: _52  and  _53
REMARK   23  A    between atoms: _55  and  _57
REMARK   24  A    between atoms: _57  and  _58
REMARK   25  A    between atoms: _57  and  _60
REMARK   26  A    between atoms: _60  and  _61
REMARK   27  A    between atoms: _61  and  _62
REMARK   28  A    between atoms: _62  and  _63
REMARK   29  A    between atoms: _72  and  _74
REMARK   30  A    between atoms: _74  and  _75
REMARK   31  A    between atoms: _74  and  _77
REMARK   32  A    between atoms: _77  and  _78
REMARK   33  A    between atoms: _84  and  _86
REMARK   34  A    between atoms: _86  and  _87
REMARK   35  A    between atoms: _86  and  _89
REMARK   36  A    between atoms: _89  and  _90
REMARK   37  A    between atoms: _90  and  _91
REMARK   38  A    between atoms: _91  and  _92
REMARK   39  A    between atoms: _101  and  _103
REMARK   40  A    between atoms: _103  and  _104
REMARK   41  A    between atoms: _103  and  _106
REMARK   42  A    between atoms: _106  and  _107
REMARK   43  A    between atoms: _107  and  _108
REMARK   44  A    between atoms: _111  and  _113
REMARK   45  A    between atoms: _113  and  _114
REMARK   46  A    between atoms: _113  and  _116
REMARK   47  A    between atoms: _119  and  _121
REMARK   48  A    between atoms: _121  and  _122
REMARK   49  A    between atoms: _121  and  _124
REMARK   50  A    between atoms: _124  and  _125
REMARK   51  A    between atoms: _130  and  _131
REMARK   52  A    between atoms: _133  and  _135
REMARK   53  A    between atoms: _135  and  _136
REMARK   54  A    between atoms: _135  and  _138
REMARK   55  A    between atoms: _138  and  _139
REMARK   56  A    between atoms: _144  and  _145
REMARK   57  A    between atoms: _147  and  _149
REMARK   58  A    between atoms: _149  and  _150
REMARK   59  A    between atoms: _149  and  _152
REMARK   60  A    between atoms: _152  and  _153
REMARK   61  A    between atoms: _163  and  _165
REMARK   62  A    between atoms: _165  and  _166
REMARK   63  A    between atoms: _165  and  _168
REMARK   64  A    between atoms: _168  and  _169
REMARK   65  A    between atoms: _172  and  _174
REMARK   66  A    between atoms: _174  and  _175
REMARK   67  A    between atoms: _174  and  _177
REMARK   68  A    between atoms: _177  and  _178
REMARK   69  A    between atoms: _180  and  _182
REMARK   70  A    between atoms: _182  and  _183
REMARK   71  A    between atoms: _182  and  _185
REMARK   72  A    between atoms: _185  and  _186
REMARK   73  A    between atoms: _191  and  _193
REMARK   74  A    between atoms: _193  and  _194
REMARK   75  A    between atoms: _196  and  _198
REMARK   76  A    between atoms: _198  and  _199
REMARK   77  A    between atoms: _198  and  _201
REMARK   78  A    between atoms: _201  and  _202
REMARK   79  A    between atoms: _207  and  _208
REMARK   80  A    between atoms: _210  and  _212
REMARK   81  A    between atoms: _212  and  _213
REMARK   82  A    between atoms: _212  and  _215
REMARK   83  A    between atoms: _215  and  _216
REMARK   84  A    between atoms: _221  and  _222
REMARK   85  A    between atoms: _224  and  _226
REMARK   86  A    between atoms: _226  and  _227
REMARK   87  A    between atoms: _226  and  _229
REMARK   88  A    between atoms: _229  and  _230
REMARK   89  A    between atoms: _232  and  _234
REMARK   90  A    between atoms: _234  and  _235
REMARK   91  A    between atoms: _234  and  _237
REMARK   92  A    between atoms: _237  and  _238
REMARK   93  A    between atoms: _238  and  _239
REMARK   94  A    between atoms: _239  and  _240
REMARK   95  A    between atoms: _249  and  _251
REMARK   96  A    between atoms: _251  and  _252
REMARK   97  A    between atoms: _251  and  _254
REMARK   98  A    between atoms: _254  and  _255
REMARK   99  A    between atoms: _257  and  _259
REMARK  100  A    between atoms: _259  and  _260
REMARK  101  A    between atoms: _259  and  _262
REMARK  102  A    between atoms: _262  and  _263
REMARK  103  A    between atoms: _263  and  _264
REMARK  104  A    between atoms: _270  and  _271
REMARK  105  A    between atoms: _276  and  _278
REMARK  106  A    between atoms: _278  and  _279
REMARK  107  A    between atoms: _278  and  _281
REMARK  108  A    between atoms: _281  and  _282
REMARK  109  A    between atoms: _285  and  _287
REMARK  110  A    between atoms: _287  and  _288
REMARK  111  A    between atoms: _287  and  _290
REMARK  112  A    between atoms: _290  and  _291
REMARK  113  A    between atoms: _291  and  _292
REMARK  114  A    between atoms: _292  and  _293
REMARK  115  A    between atoms: _303  and  _304
REMARK  116  A    between atoms: _309  and  _311
REMARK  117  A    between atoms: _311  and  _312
REMARK  118  A    between atoms: _311  and  _314
REMARK  119  A    between atoms: _314  and  _315
REMARK  120  A    between atoms: _315  and  _316
REMARK  121  A    between atoms: _319  and  _321
REMARK  122  A    between atoms: _321  and  _322
REMARK  123  A    between atoms: _321  and  _324
REMARK  124  A    between atoms: _324  and  _325
REMARK  125  A    between atoms: _327  and  _329
REMARK  126  A    between atoms: _329  and  _330
REMARK  127  A    between atoms: _329  and  _332
REMARK  128  A    between atoms: _332  and  _333
REMARK  129  A    between atoms: _343  and  _345
REMARK  130  A    between atoms: _345  and  _346
REMARK  131  A    between atoms: _345  and  _348
REMARK  132  A    between atoms: _348  and  _349
REMARK  133  A    between atoms: _349  and  _350
REMARK  134  A    between atoms: _353  and  _355
REMARK  135  A    between atoms: _355  and  _356
REMARK  136  A    between atoms: _355  and  _358
REMARK  137  A    between atoms: _358  and  _359
REMARK  138  A    between atoms: _362  and  _364
REMARK  139  A    between atoms: _364  and  _365
REMARK  140  A    between atoms: _364  and  _367
REMARK  141  A    between atoms: _367  and  _368
REMARK  142  A    between atoms: _371  and  _373
REMARK  143  A    between atoms: _373  and  _374
REMARK  144  A    between atoms: _373  and  _376
REMARK  145  A    between atoms: _376  and  _377
REMARK  146  A    between atoms: _377  and  _378
REMARK  147  A    between atoms: _378  and  _379
REMARK  148  A    between atoms: _388  and  _390
REMARK  149  A    between atoms: _390  and  _391
REMARK  150  A    between atoms: _394  and  _396
REMARK  151  A    between atoms: _396  and  _397
REMARK  152  A    between atoms: _400  and  _402
REMARK  153  A    between atoms: _402  and  _403
REMARK  154  A    between atoms: _406  and  _408
REMARK  155  A    between atoms: _408  and  _409
REMARK  156  A    between atoms: _408  and  _411
REMARK  157  A    between atoms: _411  and  _412
REMARK  158  A    between atoms: _414  and  _416
REMARK  159  A    between atoms: _416  and  _417
REMARK  160  A    between atoms: _419  and  _421
REMARK  161  A    between atoms: _421  and  _422
REMARK  162  A    between atoms: _421  and  _424
REMARK  163  A    between atoms: _424  and  _425
REMARK  164  A    between atoms: _435  and  _437
REMARK  165  A    between atoms: _437  and  _438
REMARK  166  A    between atoms: _437  and  _440
REMARK  167  A    between atoms: _440  and  _441
REMARK  168  A    between atoms: _444  and  _446
REMARK  169  A    between atoms: _446  and  _447
REMARK  170  A    between atoms: _446  and  _449
REMARK  171  A    between atoms: _449  and  _450
REMARK  172  A    between atoms: _456  and  _458
REMARK  173  A    between atoms: _458  and  _459
REMARK  174  A    between atoms: _458  and  _461
REMARK  175  A    between atoms: _461  and  _462
REMARK  176  A    between atoms: _462  and  _463
REMARK  177  A    between atoms: _468  and  _470
REMARK  178  A    between atoms: _470  and  _471
REMARK  179  A    between atoms: _470  and  _473
REMARK  180  A    between atoms: _473  and  _474
REMARK  181  A    between atoms: _484  and  _486
REMARK  182  A    between atoms: _486  and  _487
REMARK  183  A    between atoms: _486  and  _489
REMARK  184  A    between atoms: _489  and  _490
REMARK  185  A    between atoms: _501  and  _502
REMARK  186  A    between atoms: _507  and  _509
REMARK  187  A    between atoms: _509  and  _510
REMARK  188  A    between atoms: _509  and  _512
REMARK  189  A    between atoms: _512  and  _513
REMARK  190  A    between atoms: _513  and  _514
REMARK  191  A    between atoms: _517  and  _519
REMARK  192  A    between atoms: _519  and  _520
REMARK  193  A    between atoms: _519  and  _522
REMARK  194  A    between atoms: _522  and  _523
REMARK  195  A    between atoms: _523  and  _524
REMARK  196  A    between atoms: _524  and  _525
REMARK  197  A    between atoms: _525  and  _526
REMARK  198  A    between atoms: _530  and  _532
REMARK  199  A    between atoms: _532  and  _533
REMARK  200  A    between atoms: _535  and  _537
REMARK  201  A    between atoms: _537  and  _538
REMARK  202  A    between atoms: _537  and  _540
REMARK  203  A    between atoms: _540  and  _541
REMARK  204  A    between atoms: _541  and  _542
REMARK  205  A    between atoms: _545  and  _547
REMARK  206  A    between atoms: _547  and  _548
REMARK  207  A    between atoms: _547  and  _550
REMARK  208  A    between atoms: _550  and  _551
REMARK  209  A    between atoms: _556  and  _557
REMARK  210  A    between atoms: _559  and  _561
REMARK  211  A    between atoms: _561  and  _562
REMARK  212  A    between atoms: _561  and  _564
REMARK  213  A    between atoms: _564  and  _565
REMARK  214  A    between atoms: _565  and  _566
REMARK  215  A    between atoms: _571  and  _573
REMARK  216  A    between atoms: _573  and  _574
REMARK  217  A    between atoms: _573  and  _576
REMARK  218  A    between atoms: _576  and  _577
REMARK  219  A    between atoms: _583  and  _585
REMARK  220  A    between atoms: _585  and  _586
REMARK  221  A    between atoms: _588  and  _590
REMARK  222  A    between atoms: _590  and  _591
REMARK  223  A    between atoms: _590  and  _593
REMARK  224  A    between atoms: _593  and  _594
REMARK  225  A    between atoms: _604  and  _606
REMARK  226  A    between atoms: _606  and  _607
REMARK  227  A    between atoms: _606  and  _609
REMARK  228  A    between atoms: _609  and  _610
REMARK                            x       y       z     vdW  Elec       q    Type
REMARK                         _______ _______ _______ _____ _____    ______ ____
ROOT
ATOM      1  O   HOH     1      18.300  38.540  16.007  0.00  0.00    +0.000 OA
ENDROOT
TORSDOF 0
REMARK  Name = ../refined-set-2016/2jg0/2jg0_pocket.pdb
REMARK  228 active torsions:
REMARK  status: ('A' for Active; 'I' for Inactive)
REMARK    1  A    between atoms: _1  and  _3
REMARK    2  A    between atoms: _3  and  _4
REMARK    3  A    between atoms: _3  and  _6
REMARK    4  A    between atoms: _6  and  _7
REMARK    5  A    between atoms: _10  and  _12
REMARK    6  A    between atoms: _12  and  _13
REMARK    7  A    between atoms: _12  and  _15
REMARK    8  A    between atoms: _15  and  _16
REMARK    9  A    between atoms: _16  and  _17
REMARK   10  A    between atoms: _22  and  _24
REMARK   11  A    between atoms: _24  and  _25
REMARK   12  A    between atoms: _24  and  _27
REMARK   13  A    between atoms: _27  and  _28
REMARK   14  A    between atoms: _28  and  _29
REMARK   15  A    between atoms: _29  and  _30
REMARK   16  A    between atoms: _30  and  _31
REMARK   17  A    between atoms: _35  and  _37
REMARK   18  A    between atoms: _37  and  _38
REMARK   19  A    between atoms: _37  and  _40
REMARK   20  A    between atoms: _44  and  _45
REMARK   21  A    between atoms: _50  and  _52
REMARK   22  A    between atoms: _52  and  _53
REMARK   23  A    between atoms: _55  and  _57
REMARK   24  A    between atoms: _57  and  _58
REMARK   25  A    between atoms: _57  and  _60
REMARK   26  A    between atoms: _60  and  _61
REMARK   27  A    between atoms: _61  and  _62
REMARK   28  A    between atoms: _62  and  _63
REMARK   29  A    between atoms: _72  and  _74
REMARK   30  A    between atoms: _74  and  _75
REMARK   31  A    between atoms: _74  and  _77
REMARK   32  A    between atoms: _77  and  _78
REMARK   33  A    between atoms: _84  and  _86
REMARK   34  A    between atoms: _86  and  _87
REMARK   35  A    between atoms: _86  and  _89
REMARK   36  A    between atoms: _89  and  _90
REMARK   37  A    between atoms: _90  and  _91
REMARK   38  A    between atoms: _91  and  _92
REMARK   39  A    between atoms: _101  and  _103
REMARK   40  A    between atoms: _103  and  _104
REMARK   41  A    between atoms: _103  and  _106
REMARK   42  A    between atoms: _106  and  _107
REMARK   43  A    between atoms: _107  and  _108
REMARK   44  A    between atoms: _111  and  _113
REMARK   45  A    between atoms: _113  and  _114
REMARK   46  A    between atoms: _113  and  _116
REMARK   47  A    between atoms: _119  and  _121
REMARK   48  A    between atoms: _121  and  _122
REMARK   49  A    between atoms: _121  and  _124
REMARK   50  A    between atoms: _124  and  _125
REMARK   51  A    between atoms: _130  and  _131
REMARK   52  A    between atoms: _133  and  _135
REMARK   53  A    between atoms: _135  and  _136
REMARK   54  A    between atoms: _135  and  _138
REMARK   55  A    between atoms: _138  and  _139
REMARK   56  A    between atoms: _144  and  _145
REMARK   57  A    between atoms: _147  and  _149
REMARK   58  A    between atoms: _149  and  _150
REMARK   59  A    between atoms: _149  and  _152
REMARK   60  A    between atoms: _152  and  _153
REMARK   61  A    between atoms: _163  and  _165
REMARK   62  A    between atoms: _165  and  _166
REMARK   63  A    between atoms: _165  and  _168
REMARK   64  A    between atoms: _168  and  _169
REMARK   65  A    between atoms: _172  and  _174
REMARK   66  A    between atoms: _174  and  _175
REMARK   67  A    between atoms: _174  and  _177
REMARK   68  A    between atoms: _177  and  _178
REMARK   69  A    between atoms: _180  and  _182
REMARK   70  A    between atoms: _182  and  _183
REMARK   71  A    between atoms: _182  and  _185
REMARK   72  A    between atoms: _185  and  _186
REMARK   73  A    between atoms: _191  and  _193
REMARK   74  A    between atoms: _193  and  _194
REMARK   75  A    between atoms: _196  and  _198
REMARK   76  A    between atoms: _198  and  _199
REMARK   77  A    between atoms: _198  and  _201
REMARK   78  A    between atoms: _201  and  _202
REMARK   79  A    between atoms: _207  and  _208
REMARK   80  A    between atoms: _210  and  _212
REMARK   81  A    between atoms: _212  and  _213
REMARK   82  A    between atoms: _212  and  _215
REMARK   83  A    between atoms: _215  and  _216
REMARK   84  A    between atoms: _221  and  _222
REMARK   85  A    between atoms: _224  and  _226
REMARK   86  A    between atoms: _226  and  _227
REMARK   87  A    between atoms: _226  and  _229
REMARK   88  A    between atoms: _229  and  _230
REMARK   89  A    between atoms: _232  and  _234
REMARK   90  A    between atoms: _234  and  _235
REMARK   91  A    between atoms: _234  and  _237
REMARK   92  A    between atoms: _237  and  _238
REMARK   93  A    between atoms: _238  and  _239
REMARK   94  A    between atoms: _239  and  _240
REMARK   95  A    between atoms: _249  and  _251
REMARK   96  A    between atoms: _251  and  _252
REMARK   97  A    between atoms: _251  and  _254
REMARK   98  A    between atoms: _254  and  _255
REMARK   99  A    between atoms: _257  and  _259
REMARK  100  A    between atoms: _259  and  _260
REMARK  101  A    between atoms: _259  and  _262
REMARK  102  A    between atoms: _262  and  _263
REMARK  103  A    between atoms: _263  and  _264
REMARK  104  A    between atoms: _270  and  _271
REMARK  105  A    between atoms: _276  and  _278
REMARK  106  A    between atoms: _278  and  _279
REMARK  107  A    between atoms: _278  and  _281
REMARK  108  A    between atoms: _281  and  _282
REMARK  109  A    between atoms: _285  and  _287
REMARK  110  A    between atoms: _287  and  _288
REMARK  111  A    between atoms: _287  and  _290
REMARK  112  A    between atoms: _290  and  _291
REMARK  113  A    between atoms: _291  and  _292
REMARK  114  A    between atoms: _292  and  _293
REMARK  115  A    between atoms: _303  and  _304
REMARK  116  A    between atoms: _309  and  _311
REMARK  117  A    between atoms: _311  and  _312
REMARK  118  A    between atoms: _311  and  _314
REMARK  119  A    between atoms: _314  and  _315
REMARK  120  A    between atoms: _315  and  _316
REMARK  121  A    between atoms: _319  and  _321
REMARK  122  A    between atoms: _321  and  _322
REMARK  123  A    between atoms: _321  and  _324
REMARK  124  A    between atoms: _324  and  _325
REMARK  125  A    between atoms: _327  and  _329
REMARK  126  A    between atoms: _329  and  _330
REMARK  127  A    between atoms: _329  and  _332
REMARK  128  A    between atoms: _332  and  _333
REMARK  129  A    between atoms: _343  and  _345
REMARK  130  A    between atoms: _345  and  _346
REMARK  131  A    between atoms: _345  and  _348
REMARK  132  A    between atoms: _348  and  _349
REMARK  133  A    between atoms: _349  and  _350
REMARK  134  A    between atoms: _353  and  _355
REMARK  135  A    between atoms: _355  and  _356
REMARK  136  A    between atoms: _355  and  _358
REMARK  137  A    between atoms: _358  and  _359
REMARK  138  A    between atoms: _362  and  _364
REMARK  139  A    between atoms: _364  and  _365
REMARK  140  A    between atoms: _364  and  _367
REMARK  141  A    between atoms: _367  and  _368
REMARK  142  A    between atoms: _371  and  _373
REMARK  143  A    between atoms: _373  and  _374
REMARK  144  A    between atoms: _373  and  _376
REMARK  145  A    between atoms: _376  and  _377
REMARK  146  A    between atoms: _377  and  _378
REMARK  147  A    between atoms: _378  and  _379
REMARK  148  A    between atoms: _388  and  _390
REMARK  149  A    between atoms: _390  and  _391
REMARK  150  A    between atoms: _394  and  _396
REMARK  151  A    between atoms: _396  and  _397
REMARK  152  A    between atoms: _400  and  _402
REMARK  153  A    between atoms: _402  and  _403
REMARK  154  A    between atoms: _406  and  _408
REMARK  155  A    between atoms: _408  and  _409
REMARK  156  A    between atoms: _408  and  _411
REMARK  157  A    between atoms: _411  and  _412
REMARK  158  A    between atoms: _414  and  _416
REMARK  159  A    between atoms: _416  and  _417
REMARK  160  A    between atoms: _419  and  _421
REMARK  161  A    between atoms: _421  and  _422
REMARK  162  A    between atoms: _421  and  _424
REMARK  163  A    between atoms: _424  and  _425
REMARK  164  A    between atoms: _435  and  _437
REMARK  165  A    between atoms: _437  and  _438
REMARK  166  A    between atoms: _437  and  _440
REMARK  167  A    between atoms: _440  and  _441
REMARK  168  A    between atoms: _444  and  _446
REMARK  169  A    between atoms: _446  and  _447
REMARK  170  A    between atoms: _446  and  _449
REMARK  171  A    between atoms: _449  and  _450
REMARK  172  A    between atoms: _456  and  _458
REMARK  173  A    between atoms: _458  and  _459
REMARK  174  A    between atoms: _458  and  _461
REMARK  175  A    between atoms: _461  and  _462
REMARK  176  A    between atoms: _462  and  _463
REMARK  177  A    between atoms: _468  and  _470
REMARK  178  A    between atoms: _470  and  _471
REMARK  179  A    between atoms: _470  and  _473
REMARK  180  A    between atoms: _473  and  _474
REMARK  181  A    between atoms: _484  and  _486
REMARK  182  A    between atoms: _486  and  _487
REMARK  183  A    between atoms: _486  and  _489
REMARK  184  A    between atoms: _489  and  _490
REMARK  185  A    between atoms: _501  and  _502
REMARK  186  A    between atoms: _507  and  _509
REMARK  187  A    between atoms: _509  and  _510
REMARK  188  A    between atoms: _509  and  _512
REMARK  189  A    between atoms: _512  and  _513
REMARK  190  A    between atoms: _513  and  _514
REMARK  191  A    between atoms: _517  and  _519
REMARK  192  A    between atoms: _519  and  _520
REMARK  193  A    between atoms: _519  and  _522
REMARK  194  A    between atoms: _522  and  _523
REMARK  195  A    between atoms: _523  and  _524
REMARK  196  A    between atoms: _524  and  _525
REMARK  197  A    between atoms: _525  and  _526
REMARK  198  A    between atoms: _530  and  _532
REMARK  199  A    between atoms: _532  and  _533
REMARK  200  A    between atoms: _535  and  _537
REMARK  201  A    between atoms: _537  and  _538
REMARK  202  A    between atoms: _537  and  _540
REMARK  203  A    between atoms: _540  and  _541
REMARK  204  A    between atoms: _541  and  _542
REMARK  205  A    between atoms: _545  and  _547
REMARK  206  A    between atoms: _547  and  _548
REMARK  207  A    between atoms: _547  and  _550
REMARK  208  A    between atoms: _550  and  _551
REMARK  209  A    between atoms: _556  and  _557
REMARK  210  A    between atoms: _559  and  _561
REMARK  211  A    between atoms: _561  and  _562
REMARK  212  A    between atoms: _561  and  _564
REMARK  213  A    between atoms: _564  and  _565
REMARK  214  A    between atoms: _565  and  _566
REMARK  215  A    between atoms: _571  and  _573
REMARK  216  A    between atoms: _573  and  _574
REMARK  217  A    between atoms: _573  and  _576
REMARK  218  A    between atoms: _576  and  _577
REMARK  219  A    between atoms: _583  and  _585
REMARK  220  A    between atoms: _585  and  _586
REMARK  221  A    between atoms: _588  and  _590
REMARK  222  A    between atoms: _590  and  _591
REMARK  223  A    between atoms: _590  and  _593
REMARK  224  A    between atoms: _593  and  _594
REMARK  225  A    between atoms: _604  and  _606
REMARK  226  A    between atoms: _606  and  _607
REMARK  227  A    between atoms: _606  and  _609
REMARK  228  A    between atoms: _609  and  _610
REMARK                            x       y       z     vdW  Elec       q    Type
REMARK                         _______ _______ _______ _____ _____    ______ ____
ROOT
ATOM      1  O   HOH     1      24.966  45.249   5.604  0.00  0.00    +0.000 OA
ENDROOT
TORSDOF 0
REMARK  Name = ../refined-set-2016/2jg0/2jg0_pocket.pdb
REMARK  228 active torsions:
REMARK  status: ('A' for Active; 'I' for Inactive)
REMARK    1  A    between atoms: _1  and  _3
REMARK    2  A    between atoms: _3  and  _4
REMARK    3  A    between atoms: _3  and  _6
REMARK    4  A    between atoms: _6  and  _7
REMARK    5  A    between atoms: _10  and  _12
REMARK    6  A    between atoms: _12  and  _13
REMARK    7  A    between atoms: _12  and  _15
REMARK    8  A    between atoms: _15  and  _16
REMARK    9  A    between atoms: _16  and  _17
REMARK   10  A    between atoms: _22  and  _24
REMARK   11  A    between atoms: _24  and  _25
REMARK   12  A    between atoms: _24  and  _27
REMARK   13  A    between atoms: _27  and  _28
REMARK   14  A    between atoms: _28  and  _29
REMARK   15  A    between atoms: _29  and  _30
REMARK   16  A    between atoms: _30  and  _31
REMARK   17  A    between atoms: _35  and  _37
REMARK   18  A    between atoms: _37  and  _38
REMARK   19  A    between atoms: _37  and  _40
REMARK   20  A    between atoms: _44  and  _45
REMARK   21  A    between atoms: _50  and  _52
REMARK   22  A    between atoms: _52  and  _53
REMARK   23  A    between atoms: _55  and  _57
REMARK   24  A    between atoms: _57  and  _58
REMARK   25  A    between atoms: _57  and  _60
REMARK   26  A    between atoms: _60  and  _61
REMARK   27  A    between atoms: _61  and  _62
REMARK   28  A    between atoms: _62  and  _63
REMARK   29  A    between atoms: _72  and  _74
REMARK   30  A    between atoms: _74  and  _75
REMARK   31  A    between atoms: _74  and  _77
REMARK   32  A    between atoms: _77  and  _78
REMARK   33  A    between atoms: _84  and  _86
REMARK   34  A    between atoms: _86  and  _87
REMARK   35  A    between atoms: _86  and  _89
REMARK   36  A    between atoms: _89  and  _90
REMARK   37  A    between atoms: _90  and  _91
REMARK   38  A    between atoms: _91  and  _92
REMARK   39  A    between atoms: _101  and  _103
REMARK   40  A    between atoms: _103  and  _104
REMARK   41  A    between atoms: _103  and  _106
REMARK   42  A    between atoms: _106  and  _107
REMARK   43  A    between atoms: _107  and  _108
REMARK   44  A    between atoms: _111  and  _113
REMARK   45  A    between atoms: _113  and  _114
REMARK   46  A    between atoms: _113  and  _116
REMARK   47  A    between atoms: _119  and  _121
REMARK   48  A    between atoms: _121  and  _122
REMARK   49  A    between atoms: _121  and  _124
REMARK   50  A    between atoms: _124  and  _125
REMARK   51  A    between atoms: _130  and  _131
REMARK   52  A    between atoms: _133  and  _135
REMARK   53  A    between atoms: _135  and  _136
REMARK   54  A    between atoms: _135  and  _138
REMARK   55  A    between atoms: _138  and  _139
REMARK   56  A    between atoms: _144  and  _145
REMARK   57  A    between atoms: _147  and  _149
REMARK   58  A    between atoms: _149  and  _150
REMARK   59  A    between atoms: _149  and  _152
REMARK   60  A    between atoms: _152  and  _153
REMARK   61  A    between atoms: _163  and  _165
REMARK   62  A    between atoms: _165  and  _166
REMARK   63  A    between atoms: _165  and  _168
REMARK   64  A    between atoms: _168  and  _169
REMARK   65  A    between atoms: _172  and  _174
REMARK   66  A    between atoms: _174  and  _175
REMARK   67  A    between atoms: _174  and  _177
REMARK   68  A    between atoms: _177  and  _178
REMARK   69  A    between atoms: _180  and  _182
REMARK   70  A    between atoms: _182  and  _183
REMARK   71  A    between atoms: _182  and  _185
REMARK   72  A    between atoms: _185  and  _186
REMARK   73  A    between atoms: _191  and  _193
REMARK   74  A    between atoms: _193  and  _194
REMARK   75  A    between atoms: _196  and  _198
REMARK   76  A    between atoms: _198  and  _199
REMARK   77  A    between atoms: _198  and  _201
REMARK   78  A    between atoms: _201  and  _202
REMARK   79  A    between atoms: _207  and  _208
REMARK   80  A    between atoms: _210  and  _212
REMARK   81  A    between atoms: _212  and  _213
REMARK   82  A    between atoms: _212  and  _215
REMARK   83  A    between atoms: _215  and  _216
REMARK   84  A    between atoms: _221  and  _222
REMARK   85  A    between atoms: _224  and  _226
REMARK   86  A    between atoms: _226  and  _227
REMARK   87  A    between atoms: _226  and  _229
REMARK   88  A    between atoms: _229  and  _230
REMARK   89  A    between atoms: _232  and  _234
REMARK   90  A    between atoms: _234  and  _235
REMARK   91  A    between atoms: _234  and  _237
REMARK   92  A    between atoms: _237  and  _238
REMARK   93  A    between atoms: _238  and  _239
REMARK   94  A    between atoms: _239  and  _240
REMARK   95  A    between atoms: _249  and  _251
REMARK   96  A    between atoms: _251  and  _252
REMARK   97  A    between atoms: _251  and  _254
REMARK   98  A    between atoms: _254  and  _255
REMARK   99  A    between atoms: _257  and  _259
REMARK  100  A    between atoms: _259  and  _260
REMARK  101  A    between atoms: _259  and  _262
REMARK  102  A    between atoms: _262  and  _263
REMARK  103  A    between atoms: _263  and  _264
REMARK  104  A    between atoms: _270  and  _271
REMARK  105  A    between atoms: _276  and  _278
REMARK  106  A    between atoms: _278  and  _279
REMARK  107  A    between atoms: _278  and  _281
REMARK  108  A    between atoms: _281  and  _282
REMARK  109  A    between atoms: _285  and  _287
REMARK  110  A    between atoms: _287  and  _288
REMARK  111  A    between atoms: _287  and  _290
REMARK  112  A    between atoms: _290  and  _291
REMARK  113  A    between atoms: _291  and  _292
REMARK  114  A    between atoms: _292  and  _293
REMARK  115  A    between atoms: _303  and  _304
REMARK  116  A    between atoms: _309  and  _311
REMARK  117  A    between atoms: _311  and  _312
REMARK  118  A    between atoms: _311  and  _314
REMARK  119  A    between atoms: _314  and  _315
REMARK  120  A    between atoms: _315  and  _316
REMARK  121  A    between atoms: _319  and  _321
REMARK  122  A    between atoms: _321  and  _322
REMARK  123  A    between atoms: _321  and  _324
REMARK  124  A    between atoms: _324  and  _325
REMARK  125  A    between atoms: _327  and  _329
REMARK  126  A    between atoms: _329  and  _330
REMARK  127  A    between atoms: _329  and  _332
REMARK  128  A    between atoms: _332  and  _333
REMARK  129  A    between atoms: _343  and  _345
REMARK  130  A    between atoms: _345  and  _346
REMARK  131  A    between atoms: _345  and  _348
REMARK  132  A    between atoms: _348  and  _349
REMARK  133  A    between atoms: _349  and  _350
REMARK  134  A    between atoms: _353  and  _355
REMARK  135  A    between atoms: _355  and  _356
REMARK  136  A    between atoms: _355  and  _358
REMARK  137  A    between atoms: _358  and  _359
REMARK  138  A    between atoms: _362  and  _364
REMARK  139  A    between atoms: _364  and  _365
REMARK  140  A    between atoms: _364  and  _367
REMARK  141  A    between atoms: _367  and  _368
REMARK  142  A    between atoms: _371  and  _373
REMARK  143  A    between atoms: _373  and  _374
REMARK  144  A    between atoms: _373  and  _376
REMARK  145  A    between atoms: _376  and  _377
REMARK  146  A    between atoms: _377  and  _378
REMARK  147  A    between atoms: _378  and  _379
REMARK  148  A    between atoms: _388  and  _390
REMARK  149  A    between atoms: _390  and  _391
REMARK  150  A    between atoms: _394  and  _396
REMARK  151  A    between atoms: _396  and  _397
REMARK  152  A    between atoms: _400  and  _402
REMARK  153  A    between atoms: _402  and  _403
REMARK  154  A    between atoms: _406  and  _408
REMARK  155  A    between atoms: _408  and  _409
REMARK  156  A    between atoms: _408  and  _411
REMARK  157  A    between atoms: _411  and  _412
REMARK  158  A    between atoms: _414  and  _416
REMARK  159  A    between atoms: _416  and  _417
REMARK  160  A    between atoms: _419  and  _421
REMARK  161  A    between atoms: _421  and  _422
REMARK  162  A    between atoms: _421  and  _424
REMARK  163  A    between atoms: _424  and  _425
REMARK  164  A    between atoms: _435  and  _437
REMARK  165  A    between atoms: _437  and  _438
REMARK  166  A    between atoms: _437  and  _440
REMARK  167  A    between atoms: _440  and  _441
REMARK  168  A    between atoms: _444  and  _446
REMARK  169  A    between atoms: _446  and  _447
REMARK  170  A    between atoms: _446  and  _449
REMARK  171  A    between atoms: _449  and  _450
REMARK  172  A    between atoms: _456  and  _458
REMARK  173  A    between atoms: _458  and  _459
REMARK  174  A    between atoms: _458  and  _461
REMARK  175  A    between atoms: _461  and  _462
REMARK  176  A    between atoms: _462  and  _463
REMARK  177  A    between atoms: _468  and  _470
REMARK  178  A    between atoms: _470  and  _471
REMARK  179  A    between atoms: _470  and  _473
REMARK  180  A    between atoms: _473  and  _474
REMARK  181  A    between atoms: _484  and  _486
REMARK  182  A    between atoms: _486  and  _487
REMARK  183  A    between atoms: _486  and  _489
REMARK  184  A    between atoms: _489  and  _490
REMARK  185  A    between atoms: _501  and  _502
REMARK  186  A    between atoms: _507  and  _509
REMARK  187  A    between atoms: _509  and  _510
REMARK  188  A    between atoms: _509  and  _512
REMARK  189  A    between atoms: _512  and  _513
REMARK  190  A    between atoms: _513  and  _514
REMARK  191  A    between atoms: _517  and  _519
REMARK  192  A    between atoms: _519  and  _520
REMARK  193  A    between atoms: _519  and  _522
REMARK  194  A    between atoms: _522  and  _523
REMARK  195  A    between atoms: _523  and  _524
REMARK  196  A    between atoms: _524  and  _525
REMARK  197  A    between atoms: _525  and  _526
REMARK  198  A    between atoms: _530  and  _532
REMARK  199  A    between atoms: _532  and  _533
REMARK  200  A    between atoms: _535  and  _537
REMARK  201  A    between atoms: _537  and  _538
REMARK  202  A    between atoms: _537  and  _540
REMARK  203  A    between atoms: _540  and  _541
REMARK  204  A    between atoms: _541  and  _542
REMARK  205  A    between atoms: _545  and  _547
REMARK  206  A    between atoms: _547  and  _548
REMARK  207  A    between atoms: _547  and  _550
REMARK  208  A    between atoms: _550  and  _551
REMARK  209  A    between atoms: _556  and  _557
REMARK  210  A    between atoms: _559  and  _561
REMARK  211  A    between atoms: _561  and  _562
REMARK  212  A    between atoms: _561  and  _564
REMARK  213  A    between atoms: _564  and  _565
REMARK  214  A    between atoms: _565  and  _566
REMARK  215  A    between atoms: _571  and  _573
REMARK  216  A    between atoms: _573  and  _574
REMARK  217  A    between atoms: _573  and  _576
REMARK  218  A    between atoms: _576  and  _577
REMARK  219  A    between atoms: _583  and  _585
REMARK  220  A    between atoms: _585  and  _586
REMARK  221  A    between atoms: _588  and  _590
REMARK  222  A    between atoms: _590  and  _591
REMARK  223  A    between atoms: _590  and  _593
REMARK  224  A    between atoms: _593  and  _594
REMARK  225  A    between atoms: _604  and  _606
REMARK  226  A    between atoms: _606  and  _607
REMARK  227  A    between atoms: _606  and  _609
REMARK  228  A    between atoms: _609  and  _610
REMARK                            x       y       z     vdW  Elec       q    Type
REMARK                         _______ _______ _______ _____ _____    ______ ____
ROOT
ATOM      1  O   HOH     1      26.669  46.947  19.496  0.00  0.00    +0.000 OA
ENDROOT
TORSDOF 0
REMARK  Name = ../refined-set-2016/2jg0/2jg0_pocket.pdb
REMARK  228 active torsions:
REMARK  status: ('A' for Active; 'I' for Inactive)
REMARK    1  A    between atoms: _1  and  _3
REMARK    2  A    between atoms: _3  and  _4
REMARK    3  A    between atoms: _3  and  _6
REMARK    4  A    between atoms: _6  and  _7
REMARK    5  A    between atoms: _10  and  _12
REMARK    6  A    between atoms: _12  and  _13
REMARK    7  A    between atoms: _12  and  _15
REMARK    8  A    between atoms: _15  and  _16
REMARK    9  A    between atoms: _16  and  _17
REMARK   10  A    between atoms: _22  and  _24
REMARK   11  A    between atoms: _24  and  _25
REMARK   12  A    between atoms: _24  and  _27
REMARK   13  A    between atoms: _27  and  _28
REMARK   14  A    between atoms: _28  and  _29
REMARK   15  A    between atoms: _29  and  _30
REMARK   16  A    between atoms: _30  and  _31
REMARK   17  A    between atoms: _35  and  _37
REMARK   18  A    between atoms: _37  and  _38
REMARK   19  A    between atoms: _37  and  _40
REMARK   20  A    between atoms: _44  and  _45
REMARK   21  A    between atoms: _50  and  _52
REMARK   22  A    between atoms: _52  and  _53
REMARK   23  A    between atoms: _55  and  _57
REMARK   24  A    between atoms: _57  and  _58
REMARK   25  A    between atoms: _57  and  _60
REMARK   26  A    between atoms: _60  and  _61
REMARK   27  A    between atoms: _61  and  _62
REMARK   28  A    between atoms: _62  and  _63
REMARK   29  A    between atoms: _72  and  _74
REMARK   30  A    between atoms: _74  and  _75
REMARK   31  A    between atoms: _74  and  _77
REMARK   32  A    between atoms: _77  and  _78
REMARK   33  A    between atoms: _84  and  _86
REMARK   34  A    between atoms: _86  and  _87
REMARK   35  A    between atoms: _86  and  _89
REMARK   36  A    between atoms: _89  and  _90
REMARK   37  A    between atoms: _90  and  _91
REMARK   38  A    between atoms: _91  and  _92
REMARK   39  A    between atoms: _101  and  _103
REMARK   40  A    between atoms: _103  and  _104
REMARK   41  A    between atoms: _103  and  _106
REMARK   42  A    between atoms: _106  and  _107
REMARK   43  A    between atoms: _107  and  _108
REMARK   44  A    between atoms: _111  and  _113
REMARK   45  A    between atoms: _113  and  _114
REMARK   46  A    between atoms: _113  and  _116
REMARK   47  A    between atoms: _119  and  _121
REMARK   48  A    between atoms: _121  and  _122
REMARK   49  A    between atoms: _121  and  _124
REMARK   50  A    between atoms: _124  and  _125
REMARK   51  A    between atoms: _130  and  _131
REMARK   52  A    between atoms: _133  and  _135
REMARK   53  A    between atoms: _135  and  _136
REMARK   54  A    between atoms: _135  and  _138
REMARK   55  A    between atoms: _138  and  _139
REMARK   56  A    between atoms: _144  and  _145
REMARK   57  A    between atoms: _147  and  _149
REMARK   58  A    between atoms: _149  and  _150
REMARK   59  A    between atoms: _149  and  _152
REMARK   60  A    between atoms: _152  and  _153
REMARK   61  A    between atoms: _163  and  _165
REMARK   62  A    between atoms: _165  and  _166
REMARK   63  A    between atoms: _165  and  _168
REMARK   64  A    between atoms: _168  and  _169
REMARK   65  A    between atoms: _172  and  _174
REMARK   66  A    between atoms: _174  and  _175
REMARK   67  A    between atoms: _174  and  _177
REMARK   68  A    between atoms: _177  and  _178
REMARK   69  A    between atoms: _180  and  _182
REMARK   70  A    between atoms: _182  and  _183
REMARK   71  A    between atoms: _182  and  _185
REMARK   72  A    between atoms: _185  and  _186
REMARK   73  A    between atoms: _191  and  _193
REMARK   74  A    between atoms: _193  and  _194
REMARK   75  A    between atoms: _196  and  _198
REMARK   76  A    between atoms: _198  and  _199
REMARK   77  A    between atoms: _198  and  _201
REMARK   78  A    between atoms: _201  and  _202
REMARK   79  A    between atoms: _207  and  _208
REMARK   80  A    between atoms: _210  and  _212
REMARK   81  A    between atoms: _212  and  _213
REMARK   82  A    between atoms: _212  and  _215
REMARK   83  A    between atoms: _215  and  _216
REMARK   84  A    between atoms: _221  and  _222
REMARK   85  A    between atoms: _224  and  _226
REMARK   86  A    between atoms: _226  and  _227
REMARK   87  A    between atoms: _226  and  _229
REMARK   88  A    between atoms: _229  and  _230
REMARK   89  A    between atoms: _232  and  _234
REMARK   90  A    between atoms: _234  and  _235
REMARK   91  A    between atoms: _234  and  _237
REMARK   92  A    between atoms: _237  and  _238
REMARK   93  A    between atoms: _238  and  _239
REMARK   94  A    between atoms: _239  and  _240
REMARK   95  A    between atoms: _249  and  _251
REMARK   96  A    between atoms: _251  and  _252
REMARK   97  A    between atoms: _251  and  _254
REMARK   98  A    between atoms: _254  and  _255
REMARK   99  A    between atoms: _257  and  _259
REMARK  100  A    between atoms: _259  and  _260
REMARK  101  A    between atoms: _259  and  _262
REMARK  102  A    between atoms: _262  and  _263
REMARK  103  A    between atoms: _263  and  _264
REMARK  104  A    between atoms: _270  and  _271
REMARK  105  A    between atoms: _276  and  _278
REMARK  106  A    between atoms: _278  and  _279
REMARK  107  A    between atoms: _278  and  _281
REMARK  108  A    between atoms: _281  and  _282
REMARK  109  A    between atoms: _285  and  _287
REMARK  110  A    between atoms: _287  and  _288
REMARK  111  A    between atoms: _287  and  _290
REMARK  112  A    between atoms: _290  and  _291
REMARK  113  A    between atoms: _291  and  _292
REMARK  114  A    between atoms: _292  and  _293
REMARK  115  A    between atoms: _303  and  _304
REMARK  116  A    between atoms: _309  and  _311
REMARK  117  A    between atoms: _311  and  _312
REMARK  118  A    between atoms: _311  and  _314
REMARK  119  A    between atoms: _314  and  _315
REMARK  120  A    between atoms: _315  and  _316
REMARK  121  A    between atoms: _319  and  _321
REMARK  122  A    between atoms: _321  and  _322
REMARK  123  A    between atoms: _321  and  _324
REMARK  124  A    between atoms: _324  and  _325
REMARK  125  A    between atoms: _327  and  _329
REMARK  126  A    between atoms: _329  and  _330
REMARK  127  A    between atoms: _329  and  _332
REMARK  128  A    between atoms: _332  and  _333
REMARK  129  A    between atoms: _343  and  _345
REMARK  130  A    between atoms: _345  and  _346
REMARK  131  A    between atoms: _345  and  _348
REMARK  132  A    between atoms: _348  and  _349
REMARK  133  A    between atoms: _349  and  _350
REMARK  134  A    between atoms: _353  and  _355
REMARK  135  A    between atoms: _355  and  _356
REMARK  136  A    between atoms: _355  and  _358
REMARK  137  A    between atoms: _358  and  _359
REMARK  138  A    between atoms: _362  and  _364
REMARK  139  A    between atoms: _364  and  _365
REMARK  140  A    between atoms: _364  and  _367
REMARK  141  A    between atoms: _367  and  _368
REMARK  142  A    between atoms: _371  and  _373
REMARK  143  A    between atoms: _373  and  _374
REMARK  144  A    between atoms: _373  and  _376
REMARK  145  A    between atoms: _376  and  _377
REMARK  146  A    between atoms: _377  and  _378
REMARK  147  A    between atoms: _378  and  _379
REMARK  148  A    between atoms: _388  and  _390
REMARK  149  A    between atoms: _390  and  _391
REMARK  150  A    between atoms: _394  and  _396
REMARK  151  A    between atoms: _396  and  _397
REMARK  152  A    between atoms: _400  and  _402
REMARK  153  A    between atoms: _402  and  _403
REMARK  154  A    between atoms: _406  and  _408
REMARK  155  A    between atoms: _408  and  _409
REMARK  156  A    between atoms: _408  and  _411
REMARK  157  A    between atoms: _411  and  _412
REMARK  158  A    between atoms: _414  and  _416
REMARK  159  A    between atoms: _416  and  _417
REMARK  160  A    between atoms: _419  and  _421
REMARK  161  A    between atoms: _421  and  _422
REMARK  162  A    between atoms: _421  and  _424
REMARK  163  A    between atoms: _424  and  _425
REMARK  164  A    between atoms: _435  and  _437
REMARK  165  A    between atoms: _437  and  _438
REMARK  166  A    between atoms: _437  and  _440
REMARK  167  A    between atoms: _440  and  _441
REMARK  168  A    between atoms: _444  and  _446
REMARK  169  A    between atoms: _446  and  _447
REMARK  170  A    between atoms: _446  and  _449
REMARK  171  A    between atoms: _449  and  _450
REMARK  172  A    between atoms: _456  and  _458
REMARK  173  A    between atoms: _458  and  _459
REMARK  174  A    between atoms: _458  and  _461
REMARK  175  A    between atoms: _461  and  _462
REMARK  176  A    between atoms: _462  and  _463
REMARK  177  A    between atoms: _468  and  _470
REMARK  178  A    between atoms: _470  and  _471
REMARK  179  A    between atoms: _470  and  _473
REMARK  180  A    between atoms: _473  and  _474
REMARK  181  A    between atoms: _484  and  _486
REMARK  182  A    between atoms: _486  and  _487
REMARK  183  A    between atoms: _486  and  _489
REMARK  184  A    between atoms: _489  and  _490
REMARK  185  A    between atoms: _501  and  _502
REMARK  186  A    between atoms: _507  and  _509
REMARK  187  A    between atoms: _509  and  _510
REMARK  188  A    between atoms: _509  and  _512
REMARK  189  A    between atoms: _512  and  _513
REMARK  190  A    between atoms: _513  and  _514
REMARK  191  A    between atoms: _517  and  _519
REMARK  192  A    between atoms: _519  and  _520
REMARK  193  A    between atoms: _519  and  _522
REMARK  194  A    between atoms: _522  and  _523
REMARK  195  A    between atoms: _523  and  _524
REMARK  196  A    between atoms: _524  and  _525
REMARK  197  A    between atoms: _525  and  _526
REMARK  198  A    between atoms: _530  and  _532
REMARK  199  A    between atoms: _532  and  _533
REMARK  200  A    between atoms: _535  and  _537
REMARK  201  A    between atoms: _537  and  _538
REMARK  202  A    between atoms: _537  and  _540
REMARK  203  A    between atoms: _540  and  _541
REMARK  204  A    between atoms: _541  and  _542
REMARK  205  A    between atoms: _545  and  _547
REMARK  206  A    between atoms: _547  and  _548
REMARK  207  A    between atoms: _547  and  _550
REMARK  208  A    between atoms: _550  and  _551
REMARK  209  A    between atoms: _556  and  _557
REMARK  210  A    between atoms: _559  and  _561
REMARK  211  A    between atoms: _561  and  _562
REMARK  212  A    between atoms: _561  and  _564
REMARK  213  A    between atoms: _564  and  _565
REMARK  214  A    between atoms: _565  and  _566
REMARK  215  A    between atoms: _571  and  _573
REMARK  216  A    between atoms: _573  and  _574
REMARK  217  A    between atoms: _573  and  _576
REMARK  218  A    between atoms: _576  and  _577
REMARK  219  A    between atoms: _583  and  _585
REMARK  220  A    between atoms: _585  and  _586
REMARK  221  A    between atoms: _588  and  _590
REMARK  222  A    between atoms: _590  and  _591
REMARK  223  A    between atoms: _590  and  _593
REMARK  224  A    between atoms: _593  and  _594
REMARK  225  A    between atoms: _604  and  _606
REMARK  226  A    between atoms: _606  and  _607
REMARK  227  A    between atoms: _606  and  _609
REMARK  228  A    between atoms: _609  and  _610
REMARK                            x       y       z     vdW  Elec       q    Type
REMARK                         _______ _______ _______ _____ _____    ______ ____
ROOT
ATOM      1  O   HOH     1      25.671  49.455   7.085  0.00  0.00    +0.000 OA
ENDROOT
TORSDOF 0
REMARK  Name = ../refined-set-2016/2jg0/2jg0_pocket.pdb
REMARK  228 active torsions:
REMARK  status: ('A' for Active; 'I' for Inactive)
REMARK    1  A    between atoms: _1  and  _3
REMARK    2  A    between atoms: _3  and  _4
REMARK    3  A    between atoms: _3  and  _6
REMARK    4  A    between atoms: _6  and  _7
REMARK    5  A    between atoms: _10  and  _12
REMARK    6  A    between atoms: _12  and  _13
REMARK    7  A    between atoms: _12  and  _15
REMARK    8  A    between atoms: _15  and  _16
REMARK    9  A    between atoms: _16  and  _17
REMARK   10  A    between atoms: _22  and  _24
REMARK   11  A    between atoms: _24  and  _25
REMARK   12  A    between atoms: _24  and  _27
REMARK   13  A    between atoms: _27  and  _28
REMARK   14  A    between atoms: _28  and  _29
REMARK   15  A    between atoms: _29  and  _30
REMARK   16  A    between atoms: _30  and  _31
REMARK   17  A    between atoms: _35  and  _37
REMARK   18  A    between atoms: _37  and  _38
REMARK   19  A    between atoms: _37  and  _40
REMARK   20  A    between atoms: _44  and  _45
REMARK   21  A    between atoms: _50  and  _52
REMARK   22  A    between atoms: _52  and  _53
REMARK   23  A    between atoms: _55  and  _57
REMARK   24  A    between atoms: _57  and  _58
REMARK   25  A    between atoms: _57  and  _60
REMARK   26  A    between atoms: _60  and  _61
REMARK   27  A    between atoms: _61  and  _62
REMARK   28  A    between atoms: _62  and  _63
REMARK   29  A    between atoms: _72  and  _74
REMARK   30  A    between atoms: _74  and  _75
REMARK   31  A    between atoms: _74  and  _77
REMARK   32  A    between atoms: _77  and  _78
REMARK   33  A    between atoms: _84  and  _86
REMARK   34  A    between atoms: _86  and  _87
REMARK   35  A    between atoms: _86  and  _89
REMARK   36  A    between atoms: _89  and  _90
REMARK   37  A    between atoms: _90  and  _91
REMARK   38  A    between atoms: _91  and  _92
REMARK   39  A    between atoms: _101  and  _103
REMARK   40  A    between atoms: _103  and  _104
REMARK   41  A    between atoms: _103  and  _106
REMARK   42  A    between atoms: _106  and  _107
REMARK   43  A    between atoms: _107  and  _108
REMARK   44  A    between atoms: _111  and  _113
REMARK   45  A    between atoms: _113  and  _114
REMARK   46  A    between atoms: _113  and  _116
REMARK   47  A    between atoms: _119  and  _121
REMARK   48  A    between atoms: _121  and  _122
REMARK   49  A    between atoms: _121  and  _124
REMARK   50  A    between atoms: _124  and  _125
REMARK   51  A    between atoms: _130  and  _131
REMARK   52  A    between atoms: _133  and  _135
REMARK   53  A    between atoms: _135  and  _136
REMARK   54  A    between atoms: _135  and  _138
REMARK   55  A    between atoms: _138  and  _139
REMARK   56  A    between atoms: _144  and  _145
REMARK   57  A    between atoms: _147  and  _149
REMARK   58  A    between atoms: _149  and  _150
REMARK   59  A    between atoms: _149  and  _152
REMARK   60  A    between atoms: _152  and  _153
REMARK   61  A    between atoms: _163  and  _165
REMARK   62  A    between atoms: _165  and  _166
REMARK   63  A    between atoms: _165  and  _168
REMARK   64  A    between atoms: _168  and  _169
REMARK   65  A    between atoms: _172  and  _174
REMARK   66  A    between atoms: _174  and  _175
REMARK   67  A    between atoms: _174  and  _177
REMARK   68  A    between atoms: _177  and  _178
REMARK   69  A    between atoms: _180  and  _182
REMARK   70  A    between atoms: _182  and  _183
REMARK   71  A    between atoms: _182  and  _185
REMARK   72  A    between atoms: _185  and  _186
REMARK   73  A    between atoms: _191  and  _193
REMARK   74  A    between atoms: _193  and  _194
REMARK   75  A    between atoms: _196  and  _198
REMARK   76  A    between atoms: _198  and  _199
REMARK   77  A    between atoms: _198  and  _201
REMARK   78  A    between atoms: _201  and  _202
REMARK   79  A    between atoms: _207  and  _208
REMARK   80  A    between atoms: _210  and  _212
REMARK   81  A    between atoms: _212  and  _213
REMARK   82  A    between atoms: _212  and  _215
REMARK   83  A    between atoms: _215  and  _216
REMARK   84  A    between atoms: _221  and  _222
REMARK   85  A    between atoms: _224  and  _226
REMARK   86  A    between atoms: _226  and  _227
REMARK   87  A    between atoms: _226  and  _229
REMARK   88  A    between atoms: _229  and  _230
REMARK   89  A    between atoms: _232  and  _234
REMARK   90  A    between atoms: _234  and  _235
REMARK   91  A    between atoms: _234  and  _237
REMARK   92  A    between atoms: _237  and  _238
REMARK   93  A    between atoms: _238  and  _239
REMARK   94  A    between atoms: _239  and  _240
REMARK   95  A    between atoms: _249  and  _251
REMARK   96  A    between atoms: _251  and  _252
REMARK   97  A    between atoms: _251  and  _254
REMARK   98  A    between atoms: _254  and  _255
REMARK   99  A    between atoms: _257  and  _259
REMARK  100  A    between atoms: _259  and  _260
REMARK  101  A    between atoms: _259  and  _262
REMARK  102  A    between atoms: _262  and  _263
REMARK  103  A    between atoms: _263  and  _264
REMARK  104  A    between atoms: _270  and  _271
REMARK  105  A    between atoms: _276  and  _278
REMARK  106  A    between atoms: _278  and  _279
REMARK  107  A    between atoms: _278  and  _281
REMARK  108  A    between atoms: _281  and  _282
REMARK  109  A    between atoms: _285  and  _287
REMARK  110  A    between atoms: _287  and  _288
REMARK  111  A    between atoms: _287  and  _290
REMARK  112  A    between atoms: _290  and  _291
REMARK  113  A    between atoms: _291  and  _292
REMARK  114  A    between atoms: _292  and  _293
REMARK  115  A    between atoms: _303  and  _304
REMARK  116  A    between atoms: _309  and  _311
REMARK  117  A    between atoms: _311  and  _312
REMARK  118  A    between atoms: _311  and  _314
REMARK  119  A    between atoms: _314  and  _315
REMARK  120  A    between atoms: _315  and  _316
REMARK  121  A    between atoms: _319  and  _321
REMARK  122  A    between atoms: _321  and  _322
REMARK  123  A    between atoms: _321  and  _324
REMARK  124  A    between atoms: _324  and  _325
REMARK  125  A    between atoms: _327  and  _329
REMARK  126  A    between atoms: _329  and  _330
REMARK  127  A    between atoms: _329  and  _332
REMARK  128  A    between atoms: _332  and  _333
REMARK  129  A    between atoms: _343  and  _345
REMARK  130  A    between atoms: _345  and  _346
REMARK  131  A    between atoms: _345  and  _348
REMARK  132  A    between atoms: _348  and  _349
REMARK  133  A    between atoms: _349  and  _350
REMARK  134  A    between atoms: _353  and  _355
REMARK  135  A    between atoms: _355  and  _356
REMARK  136  A    between atoms: _355  and  _358
REMARK  137  A    between atoms: _358  and  _359
REMARK  138  A    between atoms: _362  and  _364
REMARK  139  A    between atoms: _364  and  _365
REMARK  140  A    between atoms: _364  and  _367
REMARK  141  A    between atoms: _367  and  _368
REMARK  142  A    between atoms: _371  and  _373
REMARK  143  A    between atoms: _373  and  _374
REMARK  144  A    between atoms: _373  and  _376
REMARK  145  A    between atoms: _376  and  _377
REMARK  146  A    between atoms: _377  and  _378
REMARK  147  A    between atoms: _378  and  _379
REMARK  148  A    between atoms: _388  and  _390
REMARK  149  A    between atoms: _390  and  _391
REMARK  150  A    between atoms: _394  and  _396
REMARK  151  A    between atoms: _396  and  _397
REMARK  152  A    between atoms: _400  and  _402
REMARK  153  A    between atoms: _402  and  _403
REMARK  154  A    between atoms: _406  and  _408
REMARK  155  A    between atoms: _408  and  _409
REMARK  156  A    between atoms: _408  and  _411
REMARK  157  A    between atoms: _411  and  _412
REMARK  158  A    between atoms: _414  and  _416
REMARK  159  A    between atoms: _416  and  _417
REMARK  160  A    between atoms: _419  and  _421
REMARK  161  A    between atoms: _421  and  _422
REMARK  162  A    between atoms: _421  and  _424
REMARK  163  A    between atoms: _424  and  _425
REMARK  164  A    between atoms: _435  and  _437
REMARK  165  A    between atoms: _437  and  _438
REMARK  166  A    between atoms: _437  and  _440
REMARK  167  A    between atoms: _440  and  _441
REMARK  168  A    between atoms: _444  and  _446
REMARK  169  A    between atoms: _446  and  _447
REMARK  170  A    between atoms: _446  and  _449
REMARK  171  A    between atoms: _449  and  _450
REMARK  172  A    between atoms: _456  and  _458
REMARK  173  A    between atoms: _458  and  _459
REMARK  174  A    between atoms: _458  and  _461
REMARK  175  A    between atoms: _461  and  _462
REMARK  176  A    between atoms: _462  and  _463
REMARK  177  A    between atoms: _468  and  _470
REMARK  178  A    between atoms: _470  and  _471
REMARK  179  A    between atoms: _470  and  _473
REMARK  180  A    between atoms: _473  and  _474
REMARK  181  A    between atoms: _484  and  _486
REMARK  182  A    between atoms: _486  and  _487
REMARK  183  A    between atoms: _486  and  _489
REMARK  184  A    between atoms: _489  and  _490
REMARK  185  A    between atoms: _501  and  _502
REMARK  186  A    between atoms: _507  and  _509
REMARK  187  A    between atoms: _509  and  _510
REMARK  188  A    between atoms: _509  and  _512
REMARK  189  A    between atoms: _512  and  _513
REMARK  190  A    between atoms: _513  and  _514
REMARK  191  A    between atoms: _517  and  _519
REMARK  192  A    between atoms: _519  and  _520
REMARK  193  A    between atoms: _519  and  _522
REMARK  194  A    between atoms: _522  and  _523
REMARK  195  A    between atoms: _523  and  _524
REMARK  196  A    between atoms: _524  and  _525
REMARK  197  A    between atoms: _525  and  _526
REMARK  198  A    between atoms: _530  and  _532
REMARK  199  A    between atoms: _532  and  _533
REMARK  200  A    between atoms: _535  and  _537
REMARK  201  A    between atoms: _537  and  _538
REMARK  202  A    between atoms: _537  and  _540
REMARK  203  A    between atoms: _540  and  _541
REMARK  204  A    between atoms: _541  and  _542
REMARK  205  A    between atoms: _545  and  _547
REMARK  206  A    between atoms: _547  and  _548
REMARK  207  A    between atoms: _547  and  _550
REMARK  208  A    between atoms: _550  and  _551
REMARK  209  A    between atoms: _556  and  _557
REMARK  210  A    between atoms: _559  and  _561
REMARK  211  A    between atoms: _561  and  _562
REMARK  212  A    between atoms: _561  and  _564
REMARK  213  A    between atoms: _564  and  _565
REMARK  214  A    between atoms: _565  and  _566
REMARK  215  A    between atoms: _571  and  _573
REMARK  216  A    between atoms: _573  and  _574
REMARK  217  A    between atoms: _573  and  _576
REMARK  218  A    between atoms: _576  and  _577
REMARK  219  A    between atoms: _583  and  _585
REMARK  220  A    between atoms: _585  and  _586
REMARK  221  A    between atoms: _588  and  _590
REMARK  222  A    between atoms: _590  and  _591
REMARK  223  A    between atoms: _590  and  _593
REMARK  224  A    between atoms: _593  and  _594
REMARK  225  A    between atoms: _604  and  _606
REMARK  226  A    between atoms: _606  and  _607
REMARK  227  A    between atoms: _606  and  _609
REMARK  228  A    between atoms: _609  and  _610
REMARK                            x       y       z     vdW  Elec       q    Type
REMARK                         _______ _______ _______ _____ _____    ______ ____
ROOT
ATOM      1  O   HOH     1      24.649  55.605   3.394  0.00  0.00    +0.000 OA
ENDROOT
TORSDOF 0
REMARK  Name = ../refined-set-2016/2jg0/2jg0_pocket.pdb
REMARK  228 active torsions:
REMARK  status: ('A' for Active; 'I' for Inactive)
REMARK    1  A    between atoms: _1  and  _3
REMARK    2  A    between atoms: _3  and  _4
REMARK    3  A    between atoms: _3  and  _6
REMARK    4  A    between atoms: _6  and  _7
REMARK    5  A    between atoms: _10  and  _12
REMARK    6  A    between atoms: _12  and  _13
REMARK    7  A    between atoms: _12  and  _15
REMARK    8  A    between atoms: _15  and  _16
REMARK    9  A    between atoms: _16  and  _17
REMARK   10  A    between atoms: _22  and  _24
REMARK   11  A    between atoms: _24  and  _25
REMARK   12  A    between atoms: _24  and  _27
REMARK   13  A    between atoms: _27  and  _28
REMARK   14  A    between atoms: _28  and  _29
REMARK   15  A    between atoms: _29  and  _30
REMARK   16  A    between atoms: _30  and  _31
REMARK   17  A    between atoms: _35  and  _37
REMARK   18  A    between atoms: _37  and  _38
REMARK   19  A    between atoms: _37  and  _40
REMARK   20  A    between atoms: _44  and  _45
REMARK   21  A    between atoms: _50  and  _52
REMARK   22  A    between atoms: _52  and  _53
REMARK   23  A    between atoms: _55  and  _57
REMARK   24  A    between atoms: _57  and  _58
REMARK   25  A    between atoms: _57  and  _60
REMARK   26  A    between atoms: _60  and  _61
REMARK   27  A    between atoms: _61  and  _62
REMARK   28  A    between atoms: _62  and  _63
REMARK   29  A    between atoms: _72  and  _74
REMARK   30  A    between atoms: _74  and  _75
REMARK   31  A    between atoms: _74  and  _77
REMARK   32  A    between atoms: _77  and  _78
REMARK   33  A    between atoms: _84  and  _86
REMARK   34  A    between atoms: _86  and  _87
REMARK   35  A    between atoms: _86  and  _89
REMARK   36  A    between atoms: _89  and  _90
REMARK   37  A    between atoms: _90  and  _91
REMARK   38  A    between atoms: _91  and  _92
REMARK   39  A    between atoms: _101  and  _103
REMARK   40  A    between atoms: _103  and  _104
REMARK   41  A    between atoms: _103  and  _106
REMARK   42  A    between atoms: _106  and  _107
REMARK   43  A    between atoms: _107  and  _108
REMARK   44  A    between atoms: _111  and  _113
REMARK   45  A    between atoms: _113  and  _114
REMARK   46  A    between atoms: _113  and  _116
REMARK   47  A    between atoms: _119  and  _121
REMARK   48  A    between atoms: _121  and  _122
REMARK   49  A    between atoms: _121  and  _124
REMARK   50  A    between atoms: _124  and  _125
REMARK   51  A    between atoms: _130  and  _131
REMARK   52  A    between atoms: _133  and  _135
REMARK   53  A    between atoms: _135  and  _136
REMARK   54  A    between atoms: _135  and  _138
REMARK   55  A    between atoms: _138  and  _139
REMARK   56  A    between atoms: _144  and  _145
REMARK   57  A    between atoms: _147  and  _149
REMARK   58  A    between atoms: _149  and  _150
REMARK   59  A    between atoms: _149  and  _152
REMARK   60  A    between atoms: _152  and  _153
REMARK   61  A    between atoms: _163  and  _165
REMARK   62  A    between atoms: _165  and  _166
REMARK   63  A    between atoms: _165  and  _168
REMARK   64  A    between atoms: _168  and  _169
REMARK   65  A    between atoms: _172  and  _174
REMARK   66  A    between atoms: _174  and  _175
REMARK   67  A    between atoms: _174  and  _177
REMARK   68  A    between atoms: _177  and  _178
REMARK   69  A    between atoms: _180  and  _182
REMARK   70  A    between atoms: _182  and  _183
REMARK   71  A    between atoms: _182  and  _185
REMARK   72  A    between atoms: _185  and  _186
REMARK   73  A    between atoms: _191  and  _193
REMARK   74  A    between atoms: _193  and  _194
REMARK   75  A    between atoms: _196  and  _198
REMARK   76  A    between atoms: _198  and  _199
REMARK   77  A    between atoms: _198  and  _201
REMARK   78  A    between atoms: _201  and  _202
REMARK   79  A    between atoms: _207  and  _208
REMARK   80  A    between atoms: _210  and  _212
REMARK   81  A    between atoms: _212  and  _213
REMARK   82  A    between atoms: _212  and  _215
REMARK   83  A    between atoms: _215  and  _216
REMARK   84  A    between atoms: _221  and  _222
REMARK   85  A    between atoms: _224  and  _226
REMARK   86  A    between atoms: _226  and  _227
REMARK   87  A    between atoms: _226  and  _229
REMARK   88  A    between atoms: _229  and  _230
REMARK   89  A    between atoms: _232  and  _234
REMARK   90  A    between atoms: _234  and  _235
REMARK   91  A    between atoms: _234  and  _237
REMARK   92  A    between atoms: _237  and  _238
REMARK   93  A    between atoms: _238  and  _239
REMARK   94  A    between atoms: _239  and  _240
REMARK   95  A    between atoms: _249  and  _251
REMARK   96  A    between atoms: _251  and  _252
REMARK   97  A    between atoms: _251  and  _254
REMARK   98  A    between atoms: _254  and  _255
REMARK   99  A    between atoms: _257  and  _259
REMARK  100  A    between atoms: _259  and  _260
REMARK  101  A    between atoms: _259  and  _262
REMARK  102  A    between atoms: _262  and  _263
REMARK  103  A    between atoms: _263  and  _264
REMARK  104  A    between atoms: _270  and  _271
REMARK  105  A    between atoms: _276  and  _278
REMARK  106  A    between atoms: _278  and  _279
REMARK  107  A    between atoms: _278  and  _281
REMARK  108  A    between atoms: _281  and  _282
REMARK  109  A    between atoms: _285  and  _287
REMARK  110  A    between atoms: _287  and  _288
REMARK  111  A    between atoms: _287  and  _290
REMARK  112  A    between atoms: _290  and  _291
REMARK  113  A    between atoms: _291  and  _292
REMARK  114  A    between atoms: _292  and  _293
REMARK  115  A    between atoms: _303  and  _304
REMARK  116  A    between atoms: _309  and  _311
REMARK  117  A    between atoms: _311  and  _312
REMARK  118  A    between atoms: _311  and  _314
REMARK  119  A    between atoms: _314  and  _315
REMARK  120  A    between atoms: _315  and  _316
REMARK  121  A    between atoms: _319  and  _321
REMARK  122  A    between atoms: _321  and  _322
REMARK  123  A    between atoms: _321  and  _324
REMARK  124  A    between atoms: _324  and  _325
REMARK  125  A    between atoms: _327  and  _329
REMARK  126  A    between atoms: _329  and  _330
REMARK  127  A    between atoms: _329  and  _332
REMARK  128  A    between atoms: _332  and  _333
REMARK  129  A    between atoms: _343  and  _345
REMARK  130  A    between atoms: _345  and  _346
REMARK  131  A    between atoms: _345  and  _348
REMARK  132  A    between atoms: _348  and  _349
REMARK  133  A    between atoms: _349  and  _350
REMARK  134  A    between atoms: _353  and  _355
REMARK  135  A    between atoms: _355  and  _356
REMARK  136  A    between atoms: _355  and  _358
REMARK  137  A    between atoms: _358  and  _359
REMARK  138  A    between atoms: _362  and  _364
REMARK  139  A    between atoms: _364  and  _365
REMARK  140  A    between atoms: _364  and  _367
REMARK  141  A    between atoms: _367  and  _368
REMARK  142  A    between atoms: _371  and  _373
REMARK  143  A    between atoms: _373  and  _374
REMARK  144  A    between atoms: _373  and  _376
REMARK  145  A    between atoms: _376  and  _377
REMARK  146  A    between atoms: _377  and  _378
REMARK  147  A    between atoms: _378  and  _379
REMARK  148  A    between atoms: _388  and  _390
REMARK  149  A    between atoms: _390  and  _391
REMARK  150  A    between atoms: _394  and  _396
REMARK  151  A    between atoms: _396  and  _397
REMARK  152  A    between atoms: _400  and  _402
REMARK  153  A    between atoms: _402  and  _403
REMARK  154  A    between atoms: _406  and  _408
REMARK  155  A    between atoms: _408  and  _409
REMARK  156  A    between atoms: _408  and  _411
REMARK  157  A    between atoms: _411  and  _412
REMARK  158  A    between atoms: _414  and  _416
REMARK  159  A    between atoms: _416  and  _417
REMARK  160  A    between atoms: _419  and  _421
REMARK  161  A    between atoms: _421  and  _422
REMARK  162  A    between atoms: _421  and  _424
REMARK  163  A    between atoms: _424  and  _425
REMARK  164  A    between atoms: _435  and  _437
REMARK  165  A    between atoms: _437  and  _438
REMARK  166  A    between atoms: _437  and  _440
REMARK  167  A    between atoms: _440  and  _441
REMARK  168  A    between atoms: _444  and  _446
REMARK  169  A    between atoms: _446  and  _447
REMARK  170  A    between atoms: _446  and  _449
REMARK  171  A    between atoms: _449  and  _450
REMARK  172  A    between atoms: _456  and  _458
REMARK  173  A    between atoms: _458  and  _459
REMARK  174  A    between atoms: _458  and  _461
REMARK  175  A    between atoms: _461  and  _462
REMARK  176  A    between atoms: _462  and  _463
REMARK  177  A    between atoms: _468  and  _470
REMARK  178  A    between atoms: _470  and  _471
REMARK  179  A    between atoms: _470  and  _473
REMARK  180  A    between atoms: _473  and  _474
REMARK  181  A    between atoms: _484  and  _486
REMARK  182  A    between atoms: _486  and  _487
REMARK  183  A    between atoms: _486  and  _489
REMARK  184  A    between atoms: _489  and  _490
REMARK  185  A    between atoms: _501  and  _502
REMARK  186  A    between atoms: _507  and  _509
REMARK  187  A    between atoms: _509  and  _510
REMARK  188  A    between atoms: _509  and  _512
REMARK  189  A    between atoms: _512  and  _513
REMARK  190  A    between atoms: _513  and  _514
REMARK  191  A    between atoms: _517  and  _519
REMARK  192  A    between atoms: _519  and  _520
REMARK  193  A    between atoms: _519  and  _522
REMARK  194  A    between atoms: _522  and  _523
REMARK  195  A    between atoms: _523  and  _524
REMARK  196  A    between atoms: _524  and  _525
REMARK  197  A    between atoms: _525  and  _526
REMARK  198  A    between atoms: _530  and  _532
REMARK  199  A    between atoms: _532  and  _533
REMARK  200  A    between atoms: _535  and  _537
REMARK  201  A    between atoms: _537  and  _538
REMARK  202  A    between atoms: _537  and  _540
REMARK  203  A    between atoms: _540  and  _541
REMARK  204  A    between atoms: _541  and  _542
REMARK  205  A    between atoms: _545  and  _547
REMARK  206  A    between atoms: _547  and  _548
REMARK  207  A    between atoms: _547  and  _550
REMARK  208  A    between atoms: _550  and  _551
REMARK  209  A    between atoms: _556  and  _557
REMARK  210  A    between atoms: _559  and  _561
REMARK  211  A    between atoms: _561  and  _562
REMARK  212  A    between atoms: _561  and  _564
REMARK  213  A    between atoms: _564  and  _565
REMARK  214  A    between atoms: _565  and  _566
REMARK  215  A    between atoms: _571  and  _573
REMARK  216  A    between atoms: _573  and  _574
REMARK  217  A    between atoms: _573  and  _576
REMARK  218  A    between atoms: _576  and  _577
REMARK  219  A    between atoms: _583  and  _585
REMARK  220  A    between atoms: _585  and  _586
REMARK  221  A    between atoms: _588  and  _590
REMARK  222  A    between atoms: _590  and  _591
REMARK  223  A    between atoms: _590  and  _593
REMARK  224  A    between atoms: _593  and  _594
REMARK  225  A    between atoms: _604  and  _606
REMARK  226  A    between atoms: _606  and  _607
REMARK  227  A    between atoms: _606  and  _609
REMARK  228  A    between atoms: _609  and  _610
REMARK                            x       y       z     vdW  Elec       q    Type
REMARK                         _______ _______ _______ _____ _____    ______ ____
ROOT
ATOM      1  O   HOH     1      23.932  47.758   5.720  0.00  0.00    +0.000 OA
ENDROOT
TORSDOF 0
REMARK  Name = ../refined-set-2016/2jg0/2jg0_pocket.pdb
REMARK  228 active torsions:
REMARK  status: ('A' for Active; 'I' for Inactive)
REMARK    1  A    between atoms: _1  and  _3
REMARK    2  A    between atoms: _3  and  _4
REMARK    3  A    between atoms: _3  and  _6
REMARK    4  A    between atoms: _6  and  _7
REMARK    5  A    between atoms: _10  and  _12
REMARK    6  A    between atoms: _12  and  _13
REMARK    7  A    between atoms: _12  and  _15
REMARK    8  A    between atoms: _15  and  _16
REMARK    9  A    between atoms: _16  and  _17
REMARK   10  A    between atoms: _22  and  _24
REMARK   11  A    between atoms: _24  and  _25
REMARK   12  A    between atoms: _24  and  _27
REMARK   13  A    between atoms: _27  and  _28
REMARK   14  A    between atoms: _28  and  _29
REMARK   15  A    between atoms: _29  and  _30
REMARK   16  A    between atoms: _30  and  _31
REMARK   17  A    between atoms: _35  and  _37
REMARK   18  A    between atoms: _37  and  _38
REMARK   19  A    between atoms: _37  and  _40
REMARK   20  A    between atoms: _44  and  _45
REMARK   21  A    between atoms: _50  and  _52
REMARK   22  A    between atoms: _52  and  _53
REMARK   23  A    between atoms: _55  and  _57
REMARK   24  A    between atoms: _57  and  _58
REMARK   25  A    between atoms: _57  and  _60
REMARK   26  A    between atoms: _60  and  _61
REMARK   27  A    between atoms: _61  and  _62
REMARK   28  A    between atoms: _62  and  _63
REMARK   29  A    between atoms: _72  and  _74
REMARK   30  A    between atoms: _74  and  _75
REMARK   31  A    between atoms: _74  and  _77
REMARK   32  A    between atoms: _77  and  _78
REMARK   33  A    between atoms: _84  and  _86
REMARK   34  A    between atoms: _86  and  _87
REMARK   35  A    between atoms: _86  and  _89
REMARK   36  A    between atoms: _89  and  _90
REMARK   37  A    between atoms: _90  and  _91
REMARK   38  A    between atoms: _91  and  _92
REMARK   39  A    between atoms: _101  and  _103
REMARK   40  A    between atoms: _103  and  _104
REMARK   41  A    between atoms: _103  and  _106
REMARK   42  A    between atoms: _106  and  _107
REMARK   43  A    between atoms: _107  and  _108
REMARK   44  A    between atoms: _111  and  _113
REMARK   45  A    between atoms: _113  and  _114
REMARK   46  A    between atoms: _113  and  _116
REMARK   47  A    between atoms: _119  and  _121
REMARK   48  A    between atoms: _121  and  _122
REMARK   49  A    between atoms: _121  and  _124
REMARK   50  A    between atoms: _124  and  _125
REMARK   51  A    between atoms: _130  and  _131
REMARK   52  A    between atoms: _133  and  _135
REMARK   53  A    between atoms: _135  and  _136
REMARK   54  A    between atoms: _135  and  _138
REMARK   55  A    between atoms: _138  and  _139
REMARK   56  A    between atoms: _144  and  _145
REMARK   57  A    between atoms: _147  and  _149
REMARK   58  A    between atoms: _149  and  _150
REMARK   59  A    between atoms: _149  and  _152
REMARK   60  A    between atoms: _152  and  _153
REMARK   61  A    between atoms: _163  and  _165
REMARK   62  A    between atoms: _165  and  _166
REMARK   63  A    between atoms: _165  and  _168
REMARK   64  A    between atoms: _168  and  _169
REMARK   65  A    between atoms: _172  and  _174
REMARK   66  A    between atoms: _174  and  _175
REMARK   67  A    between atoms: _174  and  _177
REMARK   68  A    between atoms: _177  and  _178
REMARK   69  A    between atoms: _180  and  _182
REMARK   70  A    between atoms: _182  and  _183
REMARK   71  A    between atoms: _182  and  _185
REMARK   72  A    between atoms: _185  and  _186
REMARK   73  A    between atoms: _191  and  _193
REMARK   74  A    between atoms: _193  and  _194
REMARK   75  A    between atoms: _196  and  _198
REMARK   76  A    between atoms: _198  and  _199
REMARK   77  A    between atoms: _198  and  _201
REMARK   78  A    between atoms: _201  and  _202
REMARK   79  A    between atoms: _207  and  _208
REMARK   80  A    between atoms: _210  and  _212
REMARK   81  A    between atoms: _212  and  _213
REMARK   82  A    between atoms: _212  and  _215
REMARK   83  A    between atoms: _215  and  _216
REMARK   84  A    between atoms: _221  and  _222
REMARK   85  A    between atoms: _224  and  _226
REMARK   86  A    between atoms: _226  and  _227
REMARK   87  A    between atoms: _226  and  _229
REMARK   88  A    between atoms: _229  and  _230
REMARK   89  A    between atoms: _232  and  _234
REMARK   90  A    between atoms: _234  and  _235
REMARK   91  A    between atoms: _234  and  _237
REMARK   92  A    between atoms: _237  and  _238
REMARK   93  A    between atoms: _238  and  _239
REMARK   94  A    between atoms: _239  and  _240
REMARK   95  A    between atoms: _249  and  _251
REMARK   96  A    between atoms: _251  and  _252
REMARK   97  A    between atoms: _251  and  _254
REMARK   98  A    between atoms: _254  and  _255
REMARK   99  A    between atoms: _257  and  _259
REMARK  100  A    between atoms: _259  and  _260
REMARK  101  A    between atoms: _259  and  _262
REMARK  102  A    between atoms: _262  and  _263
REMARK  103  A    between atoms: _263  and  _264
REMARK  104  A    between atoms: _270  and  _271
REMARK  105  A    between atoms: _276  and  _278
REMARK  106  A    between atoms: _278  and  _279
REMARK  107  A    between atoms: _278  and  _281
REMARK  108  A    between atoms: _281  and  _282
REMARK  109  A    between atoms: _285  and  _287
REMARK  110  A    between atoms: _287  and  _288
REMARK  111  A    between atoms: _287  and  _290
REMARK  112  A    between atoms: _290  and  _291
REMARK  113  A    between atoms: _291  and  _292
REMARK  114  A    between atoms: _292  and  _293
REMARK  115  A    between atoms: _303  and  _304
REMARK  116  A    between atoms: _309  and  _311
REMARK  117  A    between atoms: _311  and  _312
REMARK  118  A    between atoms: _311  and  _314
REMARK  119  A    between atoms: _314  and  _315
REMARK  120  A    between atoms: _315  and  _316
REMARK  121  A    between atoms: _319  and  _321
REMARK  122  A    between atoms: _321  and  _322
REMARK  123  A    between atoms: _321  and  _324
REMARK  124  A    between atoms: _324  and  _325
REMARK  125  A    between atoms: _327  and  _329
REMARK  126  A    between atoms: _329  and  _330
REMARK  127  A    between atoms: _329  and  _332
REMARK  128  A    between atoms: _332  and  _333
REMARK  129  A    between atoms: _343  and  _345
REMARK  130  A    between atoms: _345  and  _346
REMARK  131  A    between atoms: _345  and  _348
REMARK  132  A    between atoms: _348  and  _349
REMARK  133  A    between atoms: _349  and  _350
REMARK  134  A    between atoms: _353  and  _355
REMARK  135  A    between atoms: _355  and  _356
REMARK  136  A    between atoms: _355  and  _358
REMARK  137  A    between atoms: _358  and  _359
REMARK  138  A    between atoms: _362  and  _364
REMARK  139  A    between atoms: _364  and  _365
REMARK  140  A    between atoms: _364  and  _367
REMARK  141  A    between atoms: _367  and  _368
REMARK  142  A    between atoms: _371  and  _373
REMARK  143  A    between atoms: _373  and  _374
REMARK  144  A    between atoms: _373  and  _376
REMARK  145  A    between atoms: _376  and  _377
REMARK  146  A    between atoms: _377  and  _378
REMARK  147  A    between atoms: _378  and  _379
REMARK  148  A    between atoms: _388  and  _390
REMARK  149  A    between atoms: _390  and  _391
REMARK  150  A    between atoms: _394  and  _396
REMARK  151  A    between atoms: _396  and  _397
REMARK  152  A    between atoms: _400  and  _402
REMARK  153  A    between atoms: _402  and  _403
REMARK  154  A    between atoms: _406  and  _408
REMARK  155  A    between atoms: _408  and  _409
REMARK  156  A    between atoms: _408  and  _411
REMARK  157  A    between atoms: _411  and  _412
REMARK  158  A    between atoms: _414  and  _416
REMARK  159  A    between atoms: _416  and  _417
REMARK  160  A    between atoms: _419  and  _421
REMARK  161  A    between atoms: _421  and  _422
REMARK  162  A    between atoms: _421  and  _424
REMARK  163  A    between atoms: _424  and  _425
REMARK  164  A    between atoms: _435  and  _437
REMARK  165  A    between atoms: _437  and  _438
REMARK  166  A    between atoms: _437  and  _440
REMARK  167  A    between atoms: _440  and  _441
REMARK  168  A    between atoms: _444  and  _446
REMARK  169  A    between atoms: _446  and  _447
REMARK  170  A    between atoms: _446  and  _449
REMARK  171  A    between atoms: _449  and  _450
REMARK  172  A    between atoms: _456  and  _458
REMARK  173  A    between atoms: _458  and  _459
REMARK  174  A    between atoms: _458  and  _461
REMARK  175  A    between atoms: _461  and  _462
REMARK  176  A    between atoms: _462  and  _463
REMARK  177  A    between atoms: _468  and  _470
REMARK  178  A    between atoms: _470  and  _471
REMARK  179  A    between atoms: _470  and  _473
REMARK  180  A    between atoms: _473  and  _474
REMARK  181  A    between atoms: _484  and  _486
REMARK  182  A    between atoms: _486  and  _487
REMARK  183  A    between atoms: _486  and  _489
REMARK  184  A    between atoms: _489  and  _490
REMARK  185  A    between atoms: _501  and  _502
REMARK  186  A    between atoms: _507  and  _509
REMARK  187  A    between atoms: _509  and  _510
REMARK  188  A    between atoms: _509  and  _512
REMARK  189  A    between atoms: _512  and  _513
REMARK  190  A    between atoms: _513  and  _514
REMARK  191  A    between atoms: _517  and  _519
REMARK  192  A    between atoms: _519  and  _520
REMARK  193  A    between atoms: _519  and  _522
REMARK  194  A    between atoms: _522  and  _523
REMARK  195  A    between atoms: _523  and  _524
REMARK  196  A    between atoms: _524  and  _525
REMARK  197  A    between atoms: _525  and  _526
REMARK  198  A    between atoms: _530  and  _532
REMARK  199  A    between atoms: _532  and  _533
REMARK  200  A    between atoms: _535  and  _537
REMARK  201  A    between atoms: _537  and  _538
REMARK  202  A    between atoms: _537  and  _540
REMARK  203  A    between atoms: _540  and  _541
REMARK  204  A    between atoms: _541  and  _542
REMARK  205  A    between atoms: _545  and  _547
REMARK  206  A    between atoms: _547  and  _548
REMARK  207  A    between atoms: _547  and  _550
REMARK  208  A    between atoms: _550  and  _551
REMARK  209  A    between atoms: _556  and  _557
REMARK  210  A    between atoms: _559  and  _561
REMARK  211  A    between atoms: _561  and  _562
REMARK  212  A    between atoms: _561  and  _564
REMARK  213  A    between atoms: _564  and  _565
REMARK  214  A    between atoms: _565  and  _566
REMARK  215  A    between atoms: _571  and  _573
REMARK  216  A    between atoms: _573  and  _574
REMARK  217  A    between atoms: _573  and  _576
REMARK  218  A    between atoms: _576  and  _577
REMARK  219  A    between atoms: _583  and  _585
REMARK  220  A    between atoms: _585  and  _586
REMARK  221  A    between atoms: _588  and  _590
REMARK  222  A    between atoms: _590  and  _591
REMARK  223  A    between atoms: _590  and  _593
REMARK  224  A    between atoms: _593  and  _594
REMARK  225  A    between atoms: _604  and  _606
REMARK  226  A    between atoms: _606  and  _607
REMARK  227  A    between atoms: _606  and  _609
REMARK  228  A    between atoms: _609  and  _610
REMARK                            x       y       z     vdW  Elec       q    Type
REMARK                         _______ _______ _______ _____ _____    ______ ____
ROOT
ATOM      1  O   HOH     1      22.442  47.881   0.370  0.00  0.00    +0.000 OA
ENDROOT
TORSDOF 0
