REMARK  Name = ../refined-set-2016/3g31/3g31_pocket.pdb
REMARK  78 active torsions:
REMARK  status: ('A' for Active; 'I' for Inactive)
REMARK    1  A    between atoms: _2  and  _3
REMARK    2  A    between atoms: _8  and  _10
REMARK    3  A    between atoms: _10  and  _11
REMARK    4  A    between atoms: _10  and  _13
REMARK    5  A    between atoms: _13  and  _14
REMARK    6  A    between atoms: _17  and  _19
REMARK    7  A    between atoms: _19  and  _20
REMARK    8  A    between atoms: _23  and  _25
REMARK    9  A    between atoms: _25  and  _26
REMARK   10  A    between atoms: _25  and  _28
REMARK   11  A    between atoms: _28  and  _29
REMARK   12  A    between atoms: _29  and  _30
REMARK   13  A    between atoms: _30  and  _31
REMARK   14  A    between atoms: _31  and  _32
REMARK   15  A    between atoms: _36  and  _38
REMARK   16  A    between atoms: _38  and  _39
REMARK   17  A    between atoms: _38  and  _41
REMARK   18  A    between atoms: _41  and  _42
REMARK   19  A    between atoms: _47  and  _49
REMARK   20  A    between atoms: _49  and  _50
REMARK   21  A    between atoms: _49  and  _52
REMARK   22  A    between atoms: _52  and  _53
REMARK   23  A    between atoms: _53  and  _54
REMARK   24  A    between atoms: _56  and  _58
REMARK   25  A    between atoms: _58  and  _59
REMARK   26  A    between atoms: _58  and  _61
REMARK   27  A    between atoms: _61  and  _62
REMARK   28  A    between atoms: _65  and  _67
REMARK   29  A    between atoms: _67  and  _68
REMARK   30  A    between atoms: _71  and  _73
REMARK   31  A    between atoms: _73  and  _74
REMARK   32  A    between atoms: _73  and  _76
REMARK   33  A    between atoms: _76  and  _77
REMARK   34  A    between atoms: _77  and  _78
REMARK   35  A    between atoms: _81  and  _83
REMARK   36  A    between atoms: _83  and  _84
REMARK   37  A    between atoms: _83  and  _86
REMARK   38  A    between atoms: _86  and  _87
REMARK   39  A    between atoms: _90  and  _92
REMARK   40  A    between atoms: _92  and  _93
REMARK   41  A    between atoms: _92  and  _95
REMARK   42  A    between atoms: _95  and  _96
REMARK   43  A    between atoms: _98  and  _100
REMARK   44  A    between atoms: _100  and  _101
REMARK   45  A    between atoms: _104  and  _106
REMARK   46  A    between atoms: _106  and  _107
REMARK   47  A    between atoms: _110  and  _112
REMARK   48  A    between atoms: _112  and  _113
REMARK   49  A    between atoms: _116  and  _118
REMARK   50  A    between atoms: _118  and  _119
REMARK   51  A    between atoms: _118  and  _121
REMARK   52  A    between atoms: _121  and  _122
REMARK   53  A    between atoms: _125  and  _127
REMARK   54  A    between atoms: _127  and  _128
REMARK   55  A    between atoms: _127  and  _130
REMARK   56  A    between atoms: _130  and  _131
REMARK   57  A    between atoms: _131  and  _132
REMARK   58  A    between atoms: _137  and  _139
REMARK   59  A    between atoms: _139  and  _140
REMARK   60  A    between atoms: _139  and  _142
REMARK   61  A    between atoms: _142  and  _143
REMARK   62  A    between atoms: _148  and  _149
REMARK   63  A    between atoms: _151  and  _153
REMARK   64  A    between atoms: _153  and  _154
REMARK   65  A    between atoms: _153  and  _156
REMARK   66  A    between atoms: _156  and  _157
REMARK   67  A    between atoms: _160  and  _162
REMARK   68  A    between atoms: _162  and  _163
REMARK   69  A    between atoms: _166  and  _168
REMARK   70  A    between atoms: _168  and  _169
REMARK   71  A    between atoms: _168  and  _171
REMARK   72  A    between atoms: _171  and  _172
REMARK   73  A    between atoms: _182  and  _184
REMARK   74  A    between atoms: _184  and  _185
REMARK   75  A    between atoms: _187  and  _189
REMARK   76  A    between atoms: _189  and  _190
REMARK   77  A    between atoms: _189  and  _192
REMARK   78  A    between atoms: _192  and  _193
REMARK                            x       y       z     vdW  Elec       q    Type
REMARK                         _______ _______ _______ _____ _____    ______ ____
ROOT
ATOM      1  CA  ILE A   2      -6.851  43.977  22.154  0.00  0.00    +0.148 C 
ENDROOT
BRANCH   1   3
ATOM      2  C   PRO A   1      -7.461  43.674  19.784  0.00  0.00    +0.239 C 
ATOM      3  N   ILE A   2      -7.095  44.479  20.785  0.00  0.00    -0.297 N 
ATOM      4  H   ILE A   2      -6.978  45.495  20.595  0.00  0.00    +0.150 HD
ATOM      5  O   PRO A   1      -7.624  42.448  19.913  0.00  0.00    -0.274 OA
BRANCH   2   7
ATOM      6  N   PRO A   1      -8.185  45.710  18.526  0.00  0.00    -0.210 NA
ATOM      7  CA  PRO A   1      -7.710  44.316  18.417  0.00  0.00    +0.149 C 
ATOM      8  CB  PRO A   1      -6.389  44.445  17.632  0.00  0.00    +0.028 C 
ATOM      9  CG  PRO A   1      -5.955  45.866  17.864  0.00  0.00    +0.021 C 
ATOM     10  CD  PRO A   1      -7.241  46.661  17.911  0.00  0.00    +0.089 C 
ENDBRANCH   2   7
ENDBRANCH   1   3
BRANCH   1  11
ATOM     11  C   ILE A   2      -8.067  44.167  23.082  0.00  0.00    +0.241 C 
ATOM     12  O   ILE A   2      -8.496  43.217  23.747  0.00  0.00    -0.273 OA
ATOM     13  N   ALA A   3      -8.603  45.392  23.121  0.00  0.00    -0.298 N 
ATOM     14  H   ALA A   3      -8.189  46.146  22.536  0.00  0.00    +0.150 HD
BRANCH  13  15
ATOM     15  CA  ALA A   3      -9.761  45.698  23.970  0.00  0.00    +0.137 C 
ATOM     16  CB  ALA A   3     -10.209  47.156  23.789  0.00  0.00    +0.030 C 
BRANCH  15  17
ATOM     17  C   ALA A   3     -10.933  44.743  23.731  0.00  0.00    +0.227 C 
ATOM     18  O   ALA A   3     -11.615  44.374  24.680  0.00  0.00    -0.286 OA
ENDBRANCH  15  17
ENDBRANCH  13  15
ENDBRANCH   1  11
BRANCH   1  19
ATOM     19  CB  ILE A   2      -5.585  44.608  22.795  0.00  0.00    +0.027 C 
ATOM     20  CG2 ILE A   2      -5.279  43.962  24.163  0.00  0.00    +0.002 C 
BRANCH  19  21
ATOM     21  CG1 ILE A   2      -4.370  44.500  21.852  0.00  0.00    +0.002 C 
ATOM     22  CD1 ILE A   2      -4.142  43.094  21.301  0.00  0.00    +0.000 C 
ENDBRANCH  19  21
ENDBRANCH   1  19
TORSDOF 7
REMARK  Name = ../refined-set-2016/3g31/3g31_pocket.pdb
REMARK  78 active torsions:
REMARK  status: ('A' for Active; 'I' for Inactive)
REMARK    1  A    between atoms: _2  and  _3
REMARK    2  A    between atoms: _8  and  _10
REMARK    3  A    between atoms: _10  and  _11
REMARK    4  A    between atoms: _10  and  _13
REMARK    5  A    between atoms: _13  and  _14
REMARK    6  A    between atoms: _17  and  _19
REMARK    7  A    between atoms: _19  and  _20
REMARK    8  A    between atoms: _23  and  _25
REMARK    9  A    between atoms: _25  and  _26
REMARK   10  A    between atoms: _25  and  _28
REMARK   11  A    between atoms: _28  and  _29
REMARK   12  A    between atoms: _29  and  _30
REMARK   13  A    between atoms: _30  and  _31
REMARK   14  A    between atoms: _31  and  _32
REMARK   15  A    between atoms: _36  and  _38
REMARK   16  A    between atoms: _38  and  _39
REMARK   17  A    between atoms: _38  and  _41
REMARK   18  A    between atoms: _41  and  _42
REMARK   19  A    between atoms: _47  and  _49
REMARK   20  A    between atoms: _49  and  _50
REMARK   21  A    between atoms: _49  and  _52
REMARK   22  A    between atoms: _52  and  _53
REMARK   23  A    between atoms: _53  and  _54
REMARK   24  A    between atoms: _56  and  _58
REMARK   25  A    between atoms: _58  and  _59
REMARK   26  A    between atoms: _58  and  _61
REMARK   27  A    between atoms: _61  and  _62
REMARK   28  A    between atoms: _65  and  _67
REMARK   29  A    between atoms: _67  and  _68
REMARK   30  A    between atoms: _71  and  _73
REMARK   31  A    between atoms: _73  and  _74
REMARK   32  A    between atoms: _73  and  _76
REMARK   33  A    between atoms: _76  and  _77
REMARK   34  A    between atoms: _77  and  _78
REMARK   35  A    between atoms: _81  and  _83
REMARK   36  A    between atoms: _83  and  _84
REMARK   37  A    between atoms: _83  and  _86
REMARK   38  A    between atoms: _86  and  _87
REMARK   39  A    between atoms: _90  and  _92
REMARK   40  A    between atoms: _92  and  _93
REMARK   41  A    between atoms: _92  and  _95
REMARK   42  A    between atoms: _95  and  _96
REMARK   43  A    between atoms: _98  and  _100
REMARK   44  A    between atoms: _100  and  _101
REMARK   45  A    between atoms: _104  and  _106
REMARK   46  A    between atoms: _106  and  _107
REMARK   47  A    between atoms: _110  and  _112
REMARK   48  A    between atoms: _112  and  _113
REMARK   49  A    between atoms: _116  and  _118
REMARK   50  A    between atoms: _118  and  _119
REMARK   51  A    between atoms: _118  and  _121
REMARK   52  A    between atoms: _121  and  _122
REMARK   53  A    between atoms: _125  and  _127
REMARK   54  A    between atoms: _127  and  _128
REMARK   55  A    between atoms: _127  and  _130
REMARK   56  A    between atoms: _130  and  _131
REMARK   57  A    between atoms: _131  and  _132
REMARK   58  A    between atoms: _137  and  _139
REMARK   59  A    between atoms: _139  and  _140
REMARK   60  A    between atoms: _139  and  _142
REMARK   61  A    between atoms: _142  and  _143
REMARK   62  A    between atoms: _148  and  _149
REMARK   63  A    between atoms: _151  and  _153
REMARK   64  A    between atoms: _153  and  _154
REMARK   65  A    between atoms: _153  and  _156
REMARK   66  A    between atoms: _156  and  _157
REMARK   67  A    between atoms: _160  and  _162
REMARK   68  A    between atoms: _162  and  _163
REMARK   69  A    between atoms: _166  and  _168
REMARK   70  A    between atoms: _168  and  _169
REMARK   71  A    between atoms: _168  and  _171
REMARK   72  A    between atoms: _171  and  _172
REMARK   73  A    between atoms: _182  and  _184
REMARK   74  A    between atoms: _184  and  _185
REMARK   75  A    between atoms: _187  and  _189
REMARK   76  A    between atoms: _189  and  _190
REMARK   77  A    between atoms: _189  and  _192
REMARK   78  A    between atoms: _192  and  _193
REMARK                            x       y       z     vdW  Elec       q    Type
REMARK                         _______ _______ _______ _____ _____    ______ ____
ROOT
ATOM      1  C   LYS A   1     -11.251  40.545  25.529  0.00  0.00    +0.238 C 
ATOM      2  O   LYS A   1     -11.545  39.534  26.161  0.00  0.00    -0.274 OA
ATOM      3  N   HIS A   2     -11.340  41.779  26.023  0.00  0.00    -0.298 N 
ATOM      4  H   HIS A   2     -11.274  42.579  25.362  0.00  0.00    +0.150 HD
ENDROOT
BRANCH   1   5
ATOM      5  CA  LYS A   1     -10.795  40.436  24.063  0.00  0.00    +0.145 C 
BRANCH   5   6
ATOM      6  N   LYS A   1     -11.007  41.698  23.344  0.00  0.00    -0.238 NA
ATOM      7  H   LYS A   1     -10.184  42.296  23.128  0.00  0.00    +0.142 HD
ENDBRANCH   5   6
BRANCH   5   8
ATOM      8  CB  LYS A   1      -9.313  40.030  23.959  0.00  0.00    +0.026 C 
BRANCH   8   9
ATOM      9  CG  LYS A   1      -8.766  40.278  22.532  0.00  0.00    -0.000 C 
BRANCH   9  10
ATOM     10  CD  LYS A   1      -7.388  39.693  22.239  0.00  0.00    -0.024 C 
BRANCH  10  11
ATOM     11  CE  LYS A   1      -6.511  39.549  23.428  0.00  0.00    -0.086 C 
BRANCH  11  12
ATOM     12  NZ  LYS A   1      -5.941  38.176  23.379  0.00  0.00    +0.380 N 
ATOM     13  HZ1 LYS A   1      -5.317  38.032  24.198  0.00  0.00    -0.089 HD
ATOM     14  HZ2 LYS A   1      -6.714  37.480  23.403  0.00  0.00    -0.089 HD
ATOM     15  HZ3 LYS A   1      -5.395  38.060  22.501  0.00  0.00    -0.089 HD
ENDBRANCH  11  12
ENDBRANCH  10  11
ENDBRANCH   9  10
ENDBRANCH   8   9
ENDBRANCH   5   8
ENDBRANCH   1   5
BRANCH   3  16
ATOM     16  CA  HIS A   2     -11.526  42.071  27.447  0.00  0.00    +0.143 C 
BRANCH  16  17
ATOM     17  C   HIS A   2     -12.801  42.836  27.761  0.00  0.00    +0.227 C 
ATOM     18  O   HIS A   2     -12.990  43.321  28.883  0.00  0.00    -0.286 OA
ENDBRANCH  16  17
BRANCH  16  19
ATOM     19  CB  HIS A   2     -10.306  42.821  27.987  0.00  0.00    +0.075 C 
BRANCH  19  20
ATOM     20  CG  HIS A   2      -9.018  42.109  27.723  0.00  0.00    +0.082 A 
ATOM     21  ND1 HIS A   2      -8.709  40.891  28.296  0.00  0.00    -0.227 NA
ATOM     22  CE1 HIS A   2      -7.530  40.487  27.853  0.00  0.00    +0.199 A 
ATOM     23  NE2 HIS A   2      -7.069  41.396  27.010  0.00  0.00    -0.221 NA
ATOM     24  CD2 HIS A   2      -7.983  42.416  26.908  0.00  0.00    +0.115 A 
ENDBRANCH  19  20
ENDBRANCH  16  19
ENDBRANCH   3  16
TORSDOF 11
REMARK  Name = ../refined-set-2016/3g31/3g31_pocket.pdb
REMARK  78 active torsions:
REMARK  status: ('A' for Active; 'I' for Inactive)
REMARK    1  A    between atoms: _2  and  _3
REMARK    2  A    between atoms: _8  and  _10
REMARK    3  A    between atoms: _10  and  _11
REMARK    4  A    between atoms: _10  and  _13
REMARK    5  A    between atoms: _13  and  _14
REMARK    6  A    between atoms: _17  and  _19
REMARK    7  A    between atoms: _19  and  _20
REMARK    8  A    between atoms: _23  and  _25
REMARK    9  A    between atoms: _25  and  _26
REMARK   10  A    between atoms: _25  and  _28
REMARK   11  A    between atoms: _28  and  _29
REMARK   12  A    between atoms: _29  and  _30
REMARK   13  A    between atoms: _30  and  _31
REMARK   14  A    between atoms: _31  and  _32
REMARK   15  A    between atoms: _36  and  _38
REMARK   16  A    between atoms: _38  and  _39
REMARK   17  A    between atoms: _38  and  _41
REMARK   18  A    between atoms: _41  and  _42
REMARK   19  A    between atoms: _47  and  _49
REMARK   20  A    between atoms: _49  and  _50
REMARK   21  A    between atoms: _49  and  _52
REMARK   22  A    between atoms: _52  and  _53
REMARK   23  A    between atoms: _53  and  _54
REMARK   24  A    between atoms: _56  and  _58
REMARK   25  A    between atoms: _58  and  _59
REMARK   26  A    between atoms: _58  and  _61
REMARK   27  A    between atoms: _61  and  _62
REMARK   28  A    between atoms: _65  and  _67
REMARK   29  A    between atoms: _67  and  _68
REMARK   30  A    between atoms: _71  and  _73
REMARK   31  A    between atoms: _73  and  _74
REMARK   32  A    between atoms: _73  and  _76
REMARK   33  A    between atoms: _76  and  _77
REMARK   34  A    between atoms: _77  and  _78
REMARK   35  A    between atoms: _81  and  _83
REMARK   36  A    between atoms: _83  and  _84
REMARK   37  A    between atoms: _83  and  _86
REMARK   38  A    between atoms: _86  and  _87
REMARK   39  A    between atoms: _90  and  _92
REMARK   40  A    between atoms: _92  and  _93
REMARK   41  A    between atoms: _92  and  _95
REMARK   42  A    between atoms: _95  and  _96
REMARK   43  A    between atoms: _98  and  _100
REMARK   44  A    between atoms: _100  and  _101
REMARK   45  A    between atoms: _104  and  _106
REMARK   46  A    between atoms: _106  and  _107
REMARK   47  A    between atoms: _110  and  _112
REMARK   48  A    between atoms: _112  and  _113
REMARK   49  A    between atoms: _116  and  _118
REMARK   50  A    between atoms: _118  and  _119
REMARK   51  A    between atoms: _118  and  _121
REMARK   52  A    between atoms: _121  and  _122
REMARK   53  A    between atoms: _125  and  _127
REMARK   54  A    between atoms: _127  and  _128
REMARK   55  A    between atoms: _127  and  _130
REMARK   56  A    between atoms: _130  and  _131
REMARK   57  A    between atoms: _131  and  _132
REMARK   58  A    between atoms: _137  and  _139
REMARK   59  A    between atoms: _139  and  _140
REMARK   60  A    between atoms: _139  and  _142
REMARK   61  A    between atoms: _142  and  _143
REMARK   62  A    between atoms: _148  and  _149
REMARK   63  A    between atoms: _151  and  _153
REMARK   64  A    between atoms: _153  and  _154
REMARK   65  A    between atoms: _153  and  _156
REMARK   66  A    between atoms: _156  and  _157
REMARK   67  A    between atoms: _160  and  _162
REMARK   68  A    between atoms: _162  and  _163
REMARK   69  A    between atoms: _166  and  _168
REMARK   70  A    between atoms: _168  and  _169
REMARK   71  A    between atoms: _168  and  _171
REMARK   72  A    between atoms: _171  and  _172
REMARK   73  A    between atoms: _182  and  _184
REMARK   74  A    between atoms: _184  and  _185
REMARK   75  A    between atoms: _187  and  _189
REMARK   76  A    between atoms: _189  and  _190
REMARK   77  A    between atoms: _189  and  _192
REMARK   78  A    between atoms: _192  and  _193
REMARK                            x       y       z     vdW  Elec       q    Type
REMARK                         _______ _______ _______ _____ _____    ______ ____
ROOT
ATOM      1  C   MET A   1      -6.604  46.755  32.448  0.00  0.00    +0.238 C 
ATOM      2  O   MET A   1      -7.144  47.774  32.863  0.00  0.00    -0.274 OA
ATOM      3  N   THR A   2      -5.343  46.442  32.727  0.00  0.00    -0.296 N 
ATOM      4  H   THR A   2      -4.930  45.568  32.344  0.00  0.00    +0.150 HD
ENDROOT
BRANCH   1   5
ATOM      5  CA  MET A   1      -7.383  45.806  31.549  0.00  0.00    +0.146 C 
BRANCH   5   6
ATOM      6  N   MET A   1      -8.776  45.862  31.970  0.00  0.00    -0.238 NA
ATOM      7  H   MET A   1      -9.220  46.790  32.123  0.00  0.00    +0.142 HD
ENDBRANCH   5   6
BRANCH   5   8
ATOM      8  CB  MET A   1      -7.245  46.252  30.092  0.00  0.00    +0.038 C 
BRANCH   8   9
ATOM      9  CG  MET A   1      -7.783  45.281  29.075  0.00  0.00    +0.060 C 
BRANCH   9  10
ATOM     10  SD  MET A   1      -7.805  46.007  27.429  0.00  0.00    -0.139 S 
ATOM     11  CE  MET A   1      -6.048  46.104  27.032  0.00  0.00    +0.069 C 
ENDBRANCH   9  10
ENDBRANCH   8   9
ENDBRANCH   5   8
ENDBRANCH   1   5
BRANCH   3  12
ATOM     12  CA  THR A   2      -4.531  47.324  33.572  0.00  0.00    +0.164 C 
BRANCH  12  13
ATOM     13  CB  THR A   2      -3.308  46.619  34.243  0.00  0.00    +0.136 C 
ATOM     14  CG2 THR A   2      -3.739  45.443  35.135  0.00  0.00    +0.034 C 
BRANCH  13  15
ATOM     15  OG1 THR A   2      -2.403  46.156  33.235  0.00  0.00    -0.382 OA
ATOM     16  HG1 THR A   2      -1.631  45.711  33.666  0.00  0.00    +0.210 HD
ENDBRANCH  13  15
ENDBRANCH  12  13
BRANCH  12  17
ATOM     17  C   THR A   2      -4.006  48.461  32.706  0.00  0.00    +0.229 C 
ATOM     18  O   THR A   2      -3.982  48.355  31.457  0.00  0.00    -0.286 OA
ENDBRANCH  12  17
ENDBRANCH   3  12
TORSDOF 9
REMARK  Name = ../refined-set-2016/3g31/3g31_pocket.pdb
REMARK  78 active torsions:
REMARK  status: ('A' for Active; 'I' for Inactive)
REMARK    1  A    between atoms: _2  and  _3
REMARK    2  A    between atoms: _8  and  _10
REMARK    3  A    between atoms: _10  and  _11
REMARK    4  A    between atoms: _10  and  _13
REMARK    5  A    between atoms: _13  and  _14
REMARK    6  A    between atoms: _17  and  _19
REMARK    7  A    between atoms: _19  and  _20
REMARK    8  A    between atoms: _23  and  _25
REMARK    9  A    between atoms: _25  and  _26
REMARK   10  A    between atoms: _25  and  _28
REMARK   11  A    between atoms: _28  and  _29
REMARK   12  A    between atoms: _29  and  _30
REMARK   13  A    between atoms: _30  and  _31
REMARK   14  A    between atoms: _31  and  _32
REMARK   15  A    between atoms: _36  and  _38
REMARK   16  A    between atoms: _38  and  _39
REMARK   17  A    between atoms: _38  and  _41
REMARK   18  A    between atoms: _41  and  _42
REMARK   19  A    between atoms: _47  and  _49
REMARK   20  A    between atoms: _49  and  _50
REMARK   21  A    between atoms: _49  and  _52
REMARK   22  A    between atoms: _52  and  _53
REMARK   23  A    between atoms: _53  and  _54
REMARK   24  A    between atoms: _56  and  _58
REMARK   25  A    between atoms: _58  and  _59
REMARK   26  A    between atoms: _58  and  _61
REMARK   27  A    between atoms: _61  and  _62
REMARK   28  A    between atoms: _65  and  _67
REMARK   29  A    between atoms: _67  and  _68
REMARK   30  A    between atoms: _71  and  _73
REMARK   31  A    between atoms: _73  and  _74
REMARK   32  A    between atoms: _73  and  _76
REMARK   33  A    between atoms: _76  and  _77
REMARK   34  A    between atoms: _77  and  _78
REMARK   35  A    between atoms: _81  and  _83
REMARK   36  A    between atoms: _83  and  _84
REMARK   37  A    between atoms: _83  and  _86
REMARK   38  A    between atoms: _86  and  _87
REMARK   39  A    between atoms: _90  and  _92
REMARK   40  A    between atoms: _92  and  _93
REMARK   41  A    between atoms: _92  and  _95
REMARK   42  A    between atoms: _95  and  _96
REMARK   43  A    between atoms: _98  and  _100
REMARK   44  A    between atoms: _100  and  _101
REMARK   45  A    between atoms: _104  and  _106
REMARK   46  A    between atoms: _106  and  _107
REMARK   47  A    between atoms: _110  and  _112
REMARK   48  A    between atoms: _112  and  _113
REMARK   49  A    between atoms: _116  and  _118
REMARK   50  A    between atoms: _118  and  _119
REMARK   51  A    between atoms: _118  and  _121
REMARK   52  A    between atoms: _121  and  _122
REMARK   53  A    between atoms: _125  and  _127
REMARK   54  A    between atoms: _127  and  _128
REMARK   55  A    between atoms: _127  and  _130
REMARK   56  A    between atoms: _130  and  _131
REMARK   57  A    between atoms: _131  and  _132
REMARK   58  A    between atoms: _137  and  _139
REMARK   59  A    between atoms: _139  and  _140
REMARK   60  A    between atoms: _139  and  _142
REMARK   61  A    between atoms: _142  and  _143
REMARK   62  A    between atoms: _148  and  _149
REMARK   63  A    between atoms: _151  and  _153
REMARK   64  A    between atoms: _153  and  _154
REMARK   65  A    between atoms: _153  and  _156
REMARK   66  A    between atoms: _156  and  _157
REMARK   67  A    between atoms: _160  and  _162
REMARK   68  A    between atoms: _162  and  _163
REMARK   69  A    between atoms: _166  and  _168
REMARK   70  A    between atoms: _168  and  _169
REMARK   71  A    between atoms: _168  and  _171
REMARK   72  A    between atoms: _171  and  _172
REMARK   73  A    between atoms: _182  and  _184
REMARK   74  A    between atoms: _184  and  _185
REMARK   75  A    between atoms: _187  and  _189
REMARK   76  A    between atoms: _189  and  _190
REMARK   77  A    between atoms: _189  and  _192
REMARK   78  A    between atoms: _192  and  _193
REMARK                            x       y       z     vdW  Elec       q    Type
REMARK                         _______ _______ _______ _____ _____    ______ ____
ROOT
ATOM      1  CA  ALA A   6      -2.154  47.775  23.440  0.00  0.00    +0.149 C 
ATOM      2  CB  ALA A   6      -3.578  47.490  23.978  0.00  0.00    +0.031 C 
ENDROOT
BRANCH   1   4
ATOM      3  C   ALA A   5       0.099  48.063  24.282  0.00  0.00    +0.241 C 
ATOM      4  N   ALA A   6      -1.207  47.951  24.546  0.00  0.00    -0.297 N 
ATOM      5  H   ALA A   6      -1.548  47.988  25.528  0.00  0.00    +0.150 HD
ATOM      6  O   ALA A   5       0.535  48.034  23.133  0.00  0.00    -0.273 OA
BRANCH   3   7
ATOM      7  CA  ALA A   5       1.052  48.261  25.467  0.00  0.00    +0.149 C 
ATOM      8  CB  ALA A   5       1.413  46.921  26.137  0.00  0.00    +0.031 C 
BRANCH   7  10
ATOM      9  C   SER A   4       0.256  50.448  26.158  0.00  0.00    +0.243 C 
ATOM     10  N   ALA A   5       0.514  49.180  26.452  0.00  0.00    -0.297 N 
ATOM     11  H   ALA A   5       0.325  48.836  27.415  0.00  0.00    +0.150 HD
ATOM     12  O   SER A   4       0.461  50.925  25.036  0.00  0.00    -0.273 OA
BRANCH   9  13
ATOM     13  CA  SER A   4      -0.385  51.289  27.272  0.00  0.00    +0.178 C 
BRANCH  13  15
ATOM     14  C   LEU A   3      -2.614  50.270  27.117  0.00  0.00    +0.241 C 
ATOM     15  N   SER A   4      -1.542  50.557  27.849  0.00  0.00    -0.295 N 
ATOM     16  H   SER A   4      -1.513  50.263  28.846  0.00  0.00    +0.150 HD
ATOM     17  O   LEU A   3      -2.717  50.561  25.924  0.00  0.00    -0.273 OA
BRANCH  14  18
ATOM     18  CA  LEU A   3      -3.747  49.520  27.835  0.00  0.00    +0.149 C 
BRANCH  18  20
ATOM     19  C   GLU A   2      -2.530  47.443  28.258  0.00  0.00    +0.241 C 
ATOM     20  N   LEU A   3      -3.235  48.477  28.719  0.00  0.00    -0.297 N 
ATOM     21  H   LEU A   3      -3.426  48.542  29.739  0.00  0.00    +0.150 HD
ATOM     22  O   GLU A   2      -2.317  47.256  27.052  0.00  0.00    -0.273 OA
BRANCH  19  23
ATOM     23  CA  GLU A   2      -2.000  46.458  29.310  0.00  0.00    +0.149 C 
BRANCH  23  25
ATOM     24  C   ALA A   1      -0.393  47.981  30.294  0.00  0.00    +0.238 C 
ATOM     25  N   GLU A   2      -1.420  47.157  30.447  0.00  0.00    -0.297 N 
ATOM     26  H   GLU A   2      -1.818  47.007  31.396  0.00  0.00    +0.150 HD
ATOM     27  O   ALA A   1       0.141  48.176  29.198  0.00  0.00    -0.274 OA
BRANCH  24  28
ATOM     28  CA  ALA A   1       0.120  48.671  31.559  0.00  0.00    +0.145 C 
ATOM     29  CB  ALA A   1       0.913  47.682  32.410  0.00  0.00    +0.028 C 
BRANCH  28  30
ATOM     30  N   ALA A   1      -0.992  49.270  32.333  0.00  0.00    -0.238 NA
ATOM     31  H   ALA A   1      -1.175  48.946  33.304  0.00  0.00    +0.142 HD
ENDBRANCH  28  30
ENDBRANCH  24  28
ENDBRANCH  23  25
BRANCH  23  32
ATOM     32  CB  GLU A   2      -3.126  45.530  29.782  0.00  0.00    +0.041 C 
BRANCH  32  33
ATOM     33  CG  GLU A   2      -2.644  44.266  30.446  0.00  0.00    +0.116 C 
BRANCH  33  34
ATOM     34  CD  GLU A   2      -3.805  43.420  30.943  0.00  0.00    +0.365 C 
ATOM     35  OE2 GLU A   2      -4.552  43.874  31.846  0.00  0.00    -0.246 OA
ATOM     36  OE1 GLU A   2      -3.960  42.294  30.432  0.00  0.00    -0.246 OA
ENDBRANCH  33  34
ENDBRANCH  32  33
ENDBRANCH  23  32
ENDBRANCH  19  23
ENDBRANCH  18  20
BRANCH  18  37
ATOM     37  CB  LEU A   3      -4.626  50.492  28.619  0.00  0.00    +0.029 C 
BRANCH  37  38
ATOM     38  CG  LEU A   3      -5.940  49.859  29.097  0.00  0.00    +0.002 C 
ATOM     39  CD2 LEU A   3      -6.536  50.612  30.289  0.00  0.00    +0.000 C 
ATOM     40  CD1 LEU A   3      -6.944  49.763  27.946  0.00  0.00    +0.000 C 
ENDBRANCH  37  38
ENDBRANCH  18  37
ENDBRANCH  14  18
ENDBRANCH  13  15
BRANCH  13  41
ATOM     41  CB  SER A   4       0.629  51.654  28.351  0.00  0.00    +0.166 C 
BRANCH  41  42
ATOM     42  OG  SER A   4       0.067  52.545  29.303  0.00  0.00    -0.380 OA
ATOM     43  H   SER A   4      -0.714  52.116  29.735  0.00  0.00    +0.211 HD
ENDBRANCH  41  42
ENDBRANCH  13  41
ENDBRANCH   9  13
ENDBRANCH   7  10
ENDBRANCH   3   7
ENDBRANCH   1   4
BRANCH   1  44
ATOM     44  C   ALA A   6      -2.137  48.993  22.520  0.00  0.00    +0.241 C 
ATOM     45  N   ALA A   7      -2.160  50.177  23.138  0.00  0.00    -0.297 N 
ATOM     46  H   ALA A   7      -2.186  50.205  24.177  0.00  0.00    +0.150 HD
ATOM     47  O   ALA A   6      -2.140  48.868  21.263  0.00  0.00    -0.273 OA
BRANCH  45  48
ATOM     48  CA  ALA A   7      -2.149  51.435  22.392  0.00  0.00    +0.149 C 
ATOM     49  CB  ALA A   7      -2.301  52.616  23.335  0.00  0.00    +0.031 C 
BRANCH  48  50
ATOM     50  C   ALA A   7      -0.862  51.569  21.564  0.00  0.00    +0.241 C 
ATOM     51  N   LEU A   8       0.279  51.326  22.201  0.00  0.00    -0.297 N 
ATOM     52  H   LEU A   8       0.259  50.987  23.184  0.00  0.00    +0.150 HD
ATOM     53  O   ALA A   7      -0.912  51.831  20.360  0.00  0.00    -0.273 OA
BRANCH  51  54
ATOM     54  CA  LEU A   8       1.571  51.533  21.525  0.00  0.00    +0.149 C 
BRANCH  54  55
ATOM     55  C   LEU A   8       1.878  50.483  20.457  0.00  0.00    +0.241 C 
ATOM     56  N   GLN A   9       1.688  49.223  20.810  0.00  0.00    -0.297 N 
ATOM     57  H   GLN A   9       1.176  49.014  21.691  0.00  0.00    +0.150 HD
ATOM     58  O   LEU A   8       2.222  50.818  19.326  0.00  0.00    -0.273 OA
BRANCH  56  59
ATOM     59  CA  GLN A   9       2.176  48.126  19.999  0.00  0.00    +0.149 C 
BRANCH  59  60
ATOM     60  C   GLN A   9       1.179  47.590  18.979  0.00  0.00    +0.241 C 
ATOM     61  N   TYR A  10      -0.123  47.764  19.241  0.00  0.00    -0.298 N 
ATOM     62  H   TYR A  10      -0.400  48.244  20.121  0.00  0.00    +0.150 HD
ATOM     63  O   GLN A   9       1.600  46.996  17.985  0.00  0.00    -0.273 OA
BRANCH  61  64
ATOM     64  CA  TYR A  10      -1.173  47.298  18.324  0.00  0.00    +0.141 C 
BRANCH  64  65
ATOM     65  C   TYR A  10      -2.034  48.461  17.804  0.00  0.00    +0.227 C 
ATOM     66  O   TYR A  10      -2.881  48.272  16.922  0.00  0.00    -0.286 OA
ENDBRANCH  64  65
BRANCH  64  67
ATOM     67  CB  TYR A  10      -2.041  46.226  19.020  0.00  0.00    +0.054 C 
BRANCH  67  68
ATOM     68  CG  TYR A  10      -1.205  45.053  19.450  0.00  0.00    -0.020 A 
ATOM     69  CD2 TYR A  10      -0.470  45.087  20.651  0.00  0.00    -0.001 A 
ATOM     70  CE2 TYR A  10       0.373  44.010  21.019  0.00  0.00    +0.036 A 
ATOM     71  CZ  TYR A  10       0.451  42.910  20.197  0.00  0.00    +0.134 A 
ATOM     72  CE1 TYR A  10      -0.266  42.859  19.013  0.00  0.00    +0.036 A 
ATOM     73  CD1 TYR A  10      -1.079  43.935  18.634  0.00  0.00    -0.001 A 
BRANCH  71  74
ATOM     74  OH  TYR A  10       1.251  41.828  20.542  0.00  0.00    -0.506 OA
ATOM     75  HH  TYR A  10       1.696  42.011  21.407  0.00  0.00    +0.292 HD
ENDBRANCH  71  74
ENDBRANCH  67  68
ENDBRANCH  64  67
ENDBRANCH  61  64
ENDBRANCH  59  60
BRANCH  59  76
ATOM     76  CB  GLN A   9       2.669  47.004  20.901  0.00  0.00    +0.039 C 
BRANCH  76  77
ATOM     77  CG  GLN A   9       3.755  47.463  21.886  0.00  0.00    +0.087 C 
BRANCH  77  78
ATOM     78  CD  GLN A   9       4.337  46.322  22.687  0.00  0.00    +0.219 C 
ATOM     79  OE1 GLN A   9       3.611  45.407  23.084  0.00  0.00    -0.275 OA
ATOM     80  NE2 GLN A   9       5.642  46.367  22.944  0.00  0.00    -0.329 N 
ATOM     81 HE21 GLN A   9       6.089  45.610  23.500  0.00  0.00    +0.145 HD
ATOM     82 HE22 GLN A   9       6.215  47.159  22.588  0.00  0.00    +0.145 HD
ENDBRANCH  77  78
ENDBRANCH  76  77
ENDBRANCH  59  76
ENDBRANCH  56  59
ENDBRANCH  54  55
BRANCH  54  83
ATOM     83  CB  LEU A   8       2.712  51.645  22.542  0.00  0.00    +0.029 C 
BRANCH  83  84
ATOM     84  CG  LEU A   8       2.713  52.921  23.389  0.00  0.00    +0.002 C 
ATOM     85  CD2 LEU A   8       3.924  52.898  24.338  0.00  0.00    +0.000 C 
ATOM     86  CD1 LEU A   8       2.708  54.210  22.515  0.00  0.00    +0.000 C 
ENDBRANCH  83  84
ENDBRANCH  54  83
ENDBRANCH  51  54
ENDBRANCH  48  50
ENDBRANCH  45  48
ENDBRANCH   1  44
TORSDOF 35
REMARK  Name = ../refined-set-2016/3g31/3g31_pocket.pdb
REMARK  78 active torsions:
REMARK  status: ('A' for Active; 'I' for Inactive)
REMARK    1  A    between atoms: _2  and  _3
REMARK    2  A    between atoms: _8  and  _10
REMARK    3  A    between atoms: _10  and  _11
REMARK    4  A    between atoms: _10  and  _13
REMARK    5  A    between atoms: _13  and  _14
REMARK    6  A    between atoms: _17  and  _19
REMARK    7  A    between atoms: _19  and  _20
REMARK    8  A    between atoms: _23  and  _25
REMARK    9  A    between atoms: _25  and  _26
REMARK   10  A    between atoms: _25  and  _28
REMARK   11  A    between atoms: _28  and  _29
REMARK   12  A    between atoms: _29  and  _30
REMARK   13  A    between atoms: _30  and  _31
REMARK   14  A    between atoms: _31  and  _32
REMARK   15  A    between atoms: _36  and  _38
REMARK   16  A    between atoms: _38  and  _39
REMARK   17  A    between atoms: _38  and  _41
REMARK   18  A    between atoms: _41  and  _42
REMARK   19  A    between atoms: _47  and  _49
REMARK   20  A    between atoms: _49  and  _50
REMARK   21  A    between atoms: _49  and  _52
REMARK   22  A    between atoms: _52  and  _53
REMARK   23  A    between atoms: _53  and  _54
REMARK   24  A    between atoms: _56  and  _58
REMARK   25  A    between atoms: _58  and  _59
REMARK   26  A    between atoms: _58  and  _61
REMARK   27  A    between atoms: _61  and  _62
REMARK   28  A    between atoms: _65  and  _67
REMARK   29  A    between atoms: _67  and  _68
REMARK   30  A    between atoms: _71  and  _73
REMARK   31  A    between atoms: _73  and  _74
REMARK   32  A    between atoms: _73  and  _76
REMARK   33  A    between atoms: _76  and  _77
REMARK   34  A    between atoms: _77  and  _78
REMARK   35  A    between atoms: _81  and  _83
REMARK   36  A    between atoms: _83  and  _84
REMARK   37  A    between atoms: _83  and  _86
REMARK   38  A    between atoms: _86  and  _87
REMARK   39  A    between atoms: _90  and  _92
REMARK   40  A    between atoms: _92  and  _93
REMARK   41  A    between atoms: _92  and  _95
REMARK   42  A    between atoms: _95  and  _96
REMARK   43  A    between atoms: _98  and  _100
REMARK   44  A    between atoms: _100  and  _101
REMARK   45  A    between atoms: _104  and  _106
REMARK   46  A    between atoms: _106  and  _107
REMARK   47  A    between atoms: _110  and  _112
REMARK   48  A    between atoms: _112  and  _113
REMARK   49  A    between atoms: _116  and  _118
REMARK   50  A    between atoms: _118  and  _119
REMARK   51  A    between atoms: _118  and  _121
REMARK   52  A    between atoms: _121  and  _122
REMARK   53  A    between atoms: _125  and  _127
REMARK   54  A    between atoms: _127  and  _128
REMARK   55  A    between atoms: _127  and  _130
REMARK   56  A    between atoms: _130  and  _131
REMARK   57  A    between atoms: _131  and  _132
REMARK   58  A    between atoms: _137  and  _139
REMARK   59  A    between atoms: _139  and  _140
REMARK   60  A    between atoms: _139  and  _142
REMARK   61  A    between atoms: _142  and  _143
REMARK   62  A    between atoms: _148  and  _149
REMARK   63  A    between atoms: _151  and  _153
REMARK   64  A    between atoms: _153  and  _154
REMARK   65  A    between atoms: _153  and  _156
REMARK   66  A    between atoms: _156  and  _157
REMARK   67  A    between atoms: _160  and  _162
REMARK   68  A    between atoms: _162  and  _163
REMARK   69  A    between atoms: _166  and  _168
REMARK   70  A    between atoms: _168  and  _169
REMARK   71  A    between atoms: _168  and  _171
REMARK   72  A    between atoms: _171  and  _172
REMARK   73  A    between atoms: _182  and  _184
REMARK   74  A    between atoms: _184  and  _185
REMARK   75  A    between atoms: _187  and  _189
REMARK   76  A    between atoms: _189  and  _190
REMARK   77  A    between atoms: _189  and  _192
REMARK   78  A    between atoms: _192  and  _193
REMARK                            x       y       z     vdW  Elec       q    Type
REMARK                         _______ _______ _______ _____ _____    ______ ____
ROOT
ATOM      1  CA  ASP A   1      -5.685  49.925  19.839  0.00  0.00    +0.144 C 
ENDROOT
BRANCH   1   2
ATOM      2  N   ASP A   1      -4.286  50.160  19.404  0.00  0.00    -0.239 NA
ATOM      3  H   ASP A   1      -3.509  49.837  20.015  0.00  0.00    +0.142 HD
ENDBRANCH   1   2
BRANCH   1   4
ATOM      4  C   ASP A   1      -6.319  51.258  20.204  0.00  0.00    +0.225 C 
ATOM      5  O   ASP A   1      -5.852  51.945  21.124  0.00  0.00    -0.287 OA
ENDBRANCH   1   4
BRANCH   1   6
ATOM      6  CB  ASP A   1      -5.733  48.967  21.036  0.00  0.00    +0.139 C 
BRANCH   6   7
ATOM      7  CG  ASP A   1      -7.146  48.521  21.367  0.00  0.00    +0.367 C 
ATOM      8  OD2 ASP A   1      -7.986  49.391  21.685  0.00  0.00    -0.246 OA
ATOM      9  OD1 ASP A   1      -7.425  47.286  21.329  0.00  0.00    -0.246 OA
ENDBRANCH   6   7
ENDBRANCH   1   6
TORSDOF 4
REMARK  Name = ../refined-set-2016/3g31/3g31_pocket.pdb
REMARK  78 active torsions:
REMARK  status: ('A' for Active; 'I' for Inactive)
REMARK    1  A    between atoms: _2  and  _3
REMARK    2  A    between atoms: _8  and  _10
REMARK    3  A    between atoms: _10  and  _11
REMARK    4  A    between atoms: _10  and  _13
REMARK    5  A    between atoms: _13  and  _14
REMARK    6  A    between atoms: _17  and  _19
REMARK    7  A    between atoms: _19  and  _20
REMARK    8  A    between atoms: _23  and  _25
REMARK    9  A    between atoms: _25  and  _26
REMARK   10  A    between atoms: _25  and  _28
REMARK   11  A    between atoms: _28  and  _29
REMARK   12  A    between atoms: _29  and  _30
REMARK   13  A    between atoms: _30  and  _31
REMARK   14  A    between atoms: _31  and  _32
REMARK   15  A    between atoms: _36  and  _38
REMARK   16  A    between atoms: _38  and  _39
REMARK   17  A    between atoms: _38  and  _41
REMARK   18  A    between atoms: _41  and  _42
REMARK   19  A    between atoms: _47  and  _49
REMARK   20  A    between atoms: _49  and  _50
REMARK   21  A    between atoms: _49  and  _52
REMARK   22  A    between atoms: _52  and  _53
REMARK   23  A    between atoms: _53  and  _54
REMARK   24  A    between atoms: _56  and  _58
REMARK   25  A    between atoms: _58  and  _59
REMARK   26  A    between atoms: _58  and  _61
REMARK   27  A    between atoms: _61  and  _62
REMARK   28  A    between atoms: _65  and  _67
REMARK   29  A    between atoms: _67  and  _68
REMARK   30  A    between atoms: _71  and  _73
REMARK   31  A    between atoms: _73  and  _74
REMARK   32  A    between atoms: _73  and  _76
REMARK   33  A    between atoms: _76  and  _77
REMARK   34  A    between atoms: _77  and  _78
REMARK   35  A    between atoms: _81  and  _83
REMARK   36  A    between atoms: _83  and  _84
REMARK   37  A    between atoms: _83  and  _86
REMARK   38  A    between atoms: _86  and  _87
REMARK   39  A    between atoms: _90  and  _92
REMARK   40  A    between atoms: _92  and  _93
REMARK   41  A    between atoms: _92  and  _95
REMARK   42  A    between atoms: _95  and  _96
REMARK   43  A    between atoms: _98  and  _100
REMARK   44  A    between atoms: _100  and  _101
REMARK   45  A    between atoms: _104  and  _106
REMARK   46  A    between atoms: _106  and  _107
REMARK   47  A    between atoms: _110  and  _112
REMARK   48  A    between atoms: _112  and  _113
REMARK   49  A    between atoms: _116  and  _118
REMARK   50  A    between atoms: _118  and  _119
REMARK   51  A    between atoms: _118  and  _121
REMARK   52  A    between atoms: _121  and  _122
REMARK   53  A    between atoms: _125  and  _127
REMARK   54  A    between atoms: _127  and  _128
REMARK   55  A    between atoms: _127  and  _130
REMARK   56  A    between atoms: _130  and  _131
REMARK   57  A    between atoms: _131  and  _132
REMARK   58  A    between atoms: _137  and  _139
REMARK   59  A    between atoms: _139  and  _140
REMARK   60  A    between atoms: _139  and  _142
REMARK   61  A    between atoms: _142  and  _143
REMARK   62  A    between atoms: _148  and  _149
REMARK   63  A    between atoms: _151  and  _153
REMARK   64  A    between atoms: _153  and  _154
REMARK   65  A    between atoms: _153  and  _156
REMARK   66  A    between atoms: _156  and  _157
REMARK   67  A    between atoms: _160  and  _162
REMARK   68  A    between atoms: _162  and  _163
REMARK   69  A    between atoms: _166  and  _168
REMARK   70  A    between atoms: _168  and  _169
REMARK   71  A    between atoms: _168  and  _171
REMARK   72  A    between atoms: _171  and  _172
REMARK   73  A    between atoms: _182  and  _184
REMARK   74  A    between atoms: _184  and  _185
REMARK   75  A    between atoms: _187  and  _189
REMARK   76  A    between atoms: _189  and  _190
REMARK   77  A    between atoms: _189  and  _192
REMARK   78  A    between atoms: _192  and  _193
REMARK                            x       y       z     vdW  Elec       q    Type
REMARK                         _______ _______ _______ _____ _____    ______ ____
ROOT
ATOM      1  CA  ALA A   1      -6.942  51.569  24.756  0.00  0.00    +0.133 C 
ATOM      2  CB  ALA A   1      -5.739  50.641  24.481  0.00  0.00    +0.027 C 
ENDROOT
BRANCH   1   3
ATOM      3  N   ALA A   1      -7.962  51.446  23.707  0.00  0.00    -0.239 NA
ATOM      4  H   ALA A   1      -7.782  50.858  22.868  0.00  0.00    +0.142 HD
ENDBRANCH   1   3
BRANCH   1   5
ATOM      5  C   ALA A   1      -6.493  53.047  24.867  0.00  0.00    +0.224 C 
ATOM      6  O   ALA A   1      -6.385  53.593  25.984  0.00  0.00    -0.287 OA
ENDBRANCH   1   5
TORSDOF 2
REMARK  Name = ../refined-set-2016/3g31/3g31_pocket.pdb
REMARK  78 active torsions:
REMARK  status: ('A' for Active; 'I' for Inactive)
REMARK    1  A    between atoms: _2  and  _3
REMARK    2  A    between atoms: _8  and  _10
REMARK    3  A    between atoms: _10  and  _11
REMARK    4  A    between atoms: _10  and  _13
REMARK    5  A    between atoms: _13  and  _14
REMARK    6  A    between atoms: _17  and  _19
REMARK    7  A    between atoms: _19  and  _20
REMARK    8  A    between atoms: _23  and  _25
REMARK    9  A    between atoms: _25  and  _26
REMARK   10  A    between atoms: _25  and  _28
REMARK   11  A    between atoms: _28  and  _29
REMARK   12  A    between atoms: _29  and  _30
REMARK   13  A    between atoms: _30  and  _31
REMARK   14  A    between atoms: _31  and  _32
REMARK   15  A    between atoms: _36  and  _38
REMARK   16  A    between atoms: _38  and  _39
REMARK   17  A    between atoms: _38  and  _41
REMARK   18  A    between atoms: _41  and  _42
REMARK   19  A    between atoms: _47  and  _49
REMARK   20  A    between atoms: _49  and  _50
REMARK   21  A    between atoms: _49  and  _52
REMARK   22  A    between atoms: _52  and  _53
REMARK   23  A    between atoms: _53  and  _54
REMARK   24  A    between atoms: _56  and  _58
REMARK   25  A    between atoms: _58  and  _59
REMARK   26  A    between atoms: _58  and  _61
REMARK   27  A    between atoms: _61  and  _62
REMARK   28  A    between atoms: _65  and  _67
REMARK   29  A    between atoms: _67  and  _68
REMARK   30  A    between atoms: _71  and  _73
REMARK   31  A    between atoms: _73  and  _74
REMARK   32  A    between atoms: _73  and  _76
REMARK   33  A    between atoms: _76  and  _77
REMARK   34  A    between atoms: _77  and  _78
REMARK   35  A    between atoms: _81  and  _83
REMARK   36  A    between atoms: _83  and  _84
REMARK   37  A    between atoms: _83  and  _86
REMARK   38  A    between atoms: _86  and  _87
REMARK   39  A    between atoms: _90  and  _92
REMARK   40  A    between atoms: _92  and  _93
REMARK   41  A    between atoms: _92  and  _95
REMARK   42  A    between atoms: _95  and  _96
REMARK   43  A    between atoms: _98  and  _100
REMARK   44  A    between atoms: _100  and  _101
REMARK   45  A    between atoms: _104  and  _106
REMARK   46  A    between atoms: _106  and  _107
REMARK   47  A    between atoms: _110  and  _112
REMARK   48  A    between atoms: _112  and  _113
REMARK   49  A    between atoms: _116  and  _118
REMARK   50  A    between atoms: _118  and  _119
REMARK   51  A    between atoms: _118  and  _121
REMARK   52  A    between atoms: _121  and  _122
REMARK   53  A    between atoms: _125  and  _127
REMARK   54  A    between atoms: _127  and  _128
REMARK   55  A    between atoms: _127  and  _130
REMARK   56  A    between atoms: _130  and  _131
REMARK   57  A    between atoms: _131  and  _132
REMARK   58  A    between atoms: _137  and  _139
REMARK   59  A    between atoms: _139  and  _140
REMARK   60  A    between atoms: _139  and  _142
REMARK   61  A    between atoms: _142  and  _143
REMARK   62  A    between atoms: _148  and  _149
REMARK   63  A    between atoms: _151  and  _153
REMARK   64  A    between atoms: _153  and  _154
REMARK   65  A    between atoms: _153  and  _156
REMARK   66  A    between atoms: _156  and  _157
REMARK   67  A    between atoms: _160  and  _162
REMARK   68  A    between atoms: _162  and  _163
REMARK   69  A    between atoms: _166  and  _168
REMARK   70  A    between atoms: _168  and  _169
REMARK   71  A    between atoms: _168  and  _171
REMARK   72  A    between atoms: _171  and  _172
REMARK   73  A    between atoms: _182  and  _184
REMARK   74  A    between atoms: _184  and  _185
REMARK   75  A    between atoms: _187  and  _189
REMARK   76  A    between atoms: _189  and  _190
REMARK   77  A    between atoms: _189  and  _192
REMARK   78  A    between atoms: _192  and  _193
REMARK                            x       y       z     vdW  Elec       q    Type
REMARK                         _______ _______ _______ _____ _____    ______ ____
ROOT
ATOM      1  CG  TRP A   1       5.498  49.464  26.177  0.00  0.00    -0.002 A 
ATOM      2  CD2 TRP A   1       4.940  50.193  27.268  0.00  0.00    +0.013 A 
ATOM      3  CE2 TRP A   1       4.401  49.250  28.180  0.00  0.00    +0.056 A 
ATOM      4  CZ2 TRP A   1       3.768  49.634  29.379  0.00  0.00    +0.017 A 
ATOM      5  CH2 TRP A   1       3.691  50.973  29.652  0.00  0.00    +0.001 A 
ATOM      6  CZ3 TRP A   1       4.217  51.944  28.767  0.00  0.00    +0.000 A 
ATOM      7  NE1 TRP A   1       4.613  47.998  27.660  0.00  0.00    -0.352 N 
ATOM      8  HE1 TRP A   1       4.329  47.101  28.102  0.00  0.00    +0.166 HD
ATOM      9  CE3 TRP A   1       4.850  51.564  27.571  0.00  0.00    +0.001 A 
ATOM     10  CD1 TRP A   1       5.271  48.131  26.445  0.00  0.00    +0.068 A 
ENDROOT
BRANCH   1  11
ATOM     11  CB  TRP A   1       6.173  50.067  24.962  0.00  0.00    +0.053 C 
BRANCH  11  12
ATOM     12  CA  TRP A   1       7.228  49.169  24.319  0.00  0.00    +0.137 C 
BRANCH  12  13
ATOM     13  N   TRP A   1       8.495  49.220  25.041  0.00  0.00    -0.239 NA
ATOM     14  H   TRP A   1       8.622  49.873  25.841  0.00  0.00    +0.142 HD
ENDBRANCH  12  13
BRANCH  12  15
ATOM     15  C   TRP A   1       7.379  49.517  22.829  0.00  0.00    +0.224 C 
ATOM     16  O   TRP A   1       6.908  48.789  21.981  0.00  0.00    -0.287 OA
ENDBRANCH  12  15
ENDBRANCH  11  12
ENDBRANCH   1  11
TORSDOF 4
REMARK  Name = ../refined-set-2016/3g31/3g31_pocket.pdb
REMARK  78 active torsions:
REMARK  status: ('A' for Active; 'I' for Inactive)
REMARK    1  A    between atoms: _2  and  _3
REMARK    2  A    between atoms: _8  and  _10
REMARK    3  A    between atoms: _10  and  _11
REMARK    4  A    between atoms: _10  and  _13
REMARK    5  A    between atoms: _13  and  _14
REMARK    6  A    between atoms: _17  and  _19
REMARK    7  A    between atoms: _19  and  _20
REMARK    8  A    between atoms: _23  and  _25
REMARK    9  A    between atoms: _25  and  _26
REMARK   10  A    between atoms: _25  and  _28
REMARK   11  A    between atoms: _28  and  _29
REMARK   12  A    between atoms: _29  and  _30
REMARK   13  A    between atoms: _30  and  _31
REMARK   14  A    between atoms: _31  and  _32
REMARK   15  A    between atoms: _36  and  _38
REMARK   16  A    between atoms: _38  and  _39
REMARK   17  A    between atoms: _38  and  _41
REMARK   18  A    between atoms: _41  and  _42
REMARK   19  A    between atoms: _47  and  _49
REMARK   20  A    between atoms: _49  and  _50
REMARK   21  A    between atoms: _49  and  _52
REMARK   22  A    between atoms: _52  and  _53
REMARK   23  A    between atoms: _53  and  _54
REMARK   24  A    between atoms: _56  and  _58
REMARK   25  A    between atoms: _58  and  _59
REMARK   26  A    between atoms: _58  and  _61
REMARK   27  A    between atoms: _61  and  _62
REMARK   28  A    between atoms: _65  and  _67
REMARK   29  A    between atoms: _67  and  _68
REMARK   30  A    between atoms: _71  and  _73
REMARK   31  A    between atoms: _73  and  _74
REMARK   32  A    between atoms: _73  and  _76
REMARK   33  A    between atoms: _76  and  _77
REMARK   34  A    between atoms: _77  and  _78
REMARK   35  A    between atoms: _81  and  _83
REMARK   36  A    between atoms: _83  and  _84
REMARK   37  A    between atoms: _83  and  _86
REMARK   38  A    between atoms: _86  and  _87
REMARK   39  A    between atoms: _90  and  _92
REMARK   40  A    between atoms: _92  and  _93
REMARK   41  A    between atoms: _92  and  _95
REMARK   42  A    between atoms: _95  and  _96
REMARK   43  A    between atoms: _98  and  _100
REMARK   44  A    between atoms: _100  and  _101
REMARK   45  A    between atoms: _104  and  _106
REMARK   46  A    between atoms: _106  and  _107
REMARK   47  A    between atoms: _110  and  _112
REMARK   48  A    between atoms: _112  and  _113
REMARK   49  A    between atoms: _116  and  _118
REMARK   50  A    between atoms: _118  and  _119
REMARK   51  A    between atoms: _118  and  _121
REMARK   52  A    between atoms: _121  and  _122
REMARK   53  A    between atoms: _125  and  _127
REMARK   54  A    between atoms: _127  and  _128
REMARK   55  A    between atoms: _127  and  _130
REMARK   56  A    between atoms: _130  and  _131
REMARK   57  A    between atoms: _131  and  _132
REMARK   58  A    between atoms: _137  and  _139
REMARK   59  A    between atoms: _139  and  _140
REMARK   60  A    between atoms: _139  and  _142
REMARK   61  A    between atoms: _142  and  _143
REMARK   62  A    between atoms: _148  and  _149
REMARK   63  A    between atoms: _151  and  _153
REMARK   64  A    between atoms: _153  and  _154
REMARK   65  A    between atoms: _153  and  _156
REMARK   66  A    between atoms: _156  and  _157
REMARK   67  A    between atoms: _160  and  _162
REMARK   68  A    between atoms: _162  and  _163
REMARK   69  A    between atoms: _166  and  _168
REMARK   70  A    between atoms: _168  and  _169
REMARK   71  A    between atoms: _168  and  _171
REMARK   72  A    between atoms: _171  and  _172
REMARK   73  A    between atoms: _182  and  _184
REMARK   74  A    between atoms: _184  and  _185
REMARK   75  A    between atoms: _187  and  _189
REMARK   76  A    between atoms: _189  and  _190
REMARK   77  A    between atoms: _189  and  _192
REMARK   78  A    between atoms: _192  and  _193
REMARK                            x       y       z     vdW  Elec       q    Type
REMARK                         _______ _______ _______ _____ _____    ______ ____
ROOT
ATOM      1  CA  GLY A   1       7.999  45.849  20.527  0.00  0.00    +0.156 C 
ENDROOT
BRANCH   1   2
ATOM      2  N   GLY A   1       8.921  46.981  20.665  0.00  0.00    -0.238 NA
ATOM      3  H   GLY A   1       8.717  47.699  21.389  0.00  0.00    +0.142 HD
ENDBRANCH   1   2
BRANCH   1   4
ATOM      4  C   GLY A   1       6.814  46.140  19.612  0.00  0.00    +0.226 C 
ATOM      5  O   GLY A   1       5.883  45.328  19.503  0.00  0.00    -0.287 OA
ENDBRANCH   1   4
TORSDOF 2
REMARK  Name = ../refined-set-2016/3g31/3g31_pocket.pdb
REMARK  78 active torsions:
REMARK  status: ('A' for Active; 'I' for Inactive)
REMARK    1  A    between atoms: _2  and  _3
REMARK    2  A    between atoms: _8  and  _10
REMARK    3  A    between atoms: _10  and  _11
REMARK    4  A    between atoms: _10  and  _13
REMARK    5  A    between atoms: _13  and  _14
REMARK    6  A    between atoms: _17  and  _19
REMARK    7  A    between atoms: _19  and  _20
REMARK    8  A    between atoms: _23  and  _25
REMARK    9  A    between atoms: _25  and  _26
REMARK   10  A    between atoms: _25  and  _28
REMARK   11  A    between atoms: _28  and  _29
REMARK   12  A    between atoms: _29  and  _30
REMARK   13  A    between atoms: _30  and  _31
REMARK   14  A    between atoms: _31  and  _32
REMARK   15  A    between atoms: _36  and  _38
REMARK   16  A    between atoms: _38  and  _39
REMARK   17  A    between atoms: _38  and  _41
REMARK   18  A    between atoms: _41  and  _42
REMARK   19  A    between atoms: _47  and  _49
REMARK   20  A    between atoms: _49  and  _50
REMARK   21  A    between atoms: _49  and  _52
REMARK   22  A    between atoms: _52  and  _53
REMARK   23  A    between atoms: _53  and  _54
REMARK   24  A    between atoms: _56  and  _58
REMARK   25  A    between atoms: _58  and  _59
REMARK   26  A    between atoms: _58  and  _61
REMARK   27  A    between atoms: _61  and  _62
REMARK   28  A    between atoms: _65  and  _67
REMARK   29  A    between atoms: _67  and  _68
REMARK   30  A    between atoms: _71  and  _73
REMARK   31  A    between atoms: _73  and  _74
REMARK   32  A    between atoms: _73  and  _76
REMARK   33  A    between atoms: _76  and  _77
REMARK   34  A    between atoms: _77  and  _78
REMARK   35  A    between atoms: _81  and  _83
REMARK   36  A    between atoms: _83  and  _84
REMARK   37  A    between atoms: _83  and  _86
REMARK   38  A    between atoms: _86  and  _87
REMARK   39  A    between atoms: _90  and  _92
REMARK   40  A    between atoms: _92  and  _93
REMARK   41  A    between atoms: _92  and  _95
REMARK   42  A    between atoms: _95  and  _96
REMARK   43  A    between atoms: _98  and  _100
REMARK   44  A    between atoms: _100  and  _101
REMARK   45  A    between atoms: _104  and  _106
REMARK   46  A    between atoms: _106  and  _107
REMARK   47  A    between atoms: _110  and  _112
REMARK   48  A    between atoms: _112  and  _113
REMARK   49  A    between atoms: _116  and  _118
REMARK   50  A    between atoms: _118  and  _119
REMARK   51  A    between atoms: _118  and  _121
REMARK   52  A    between atoms: _121  and  _122
REMARK   53  A    between atoms: _125  and  _127
REMARK   54  A    between atoms: _127  and  _128
REMARK   55  A    between atoms: _127  and  _130
REMARK   56  A    between atoms: _130  and  _131
REMARK   57  A    between atoms: _131  and  _132
REMARK   58  A    between atoms: _137  and  _139
REMARK   59  A    between atoms: _139  and  _140
REMARK   60  A    between atoms: _139  and  _142
REMARK   61  A    between atoms: _142  and  _143
REMARK   62  A    between atoms: _148  and  _149
REMARK   63  A    between atoms: _151  and  _153
REMARK   64  A    between atoms: _153  and  _154
REMARK   65  A    between atoms: _153  and  _156
REMARK   66  A    between atoms: _156  and  _157
REMARK   67  A    between atoms: _160  and  _162
REMARK   68  A    between atoms: _162  and  _163
REMARK   69  A    between atoms: _166  and  _168
REMARK   70  A    between atoms: _168  and  _169
REMARK   71  A    between atoms: _168  and  _171
REMARK   72  A    between atoms: _171  and  _172
REMARK   73  A    between atoms: _182  and  _184
REMARK   74  A    between atoms: _184  and  _185
REMARK   75  A    between atoms: _187  and  _189
REMARK   76  A    between atoms: _189  and  _190
REMARK   77  A    between atoms: _189  and  _192
REMARK   78  A    between atoms: _192  and  _193
REMARK                            x       y       z     vdW  Elec       q    Type
REMARK                         _______ _______ _______ _____ _____    ______ ____
ROOT
ATOM      1  CA  THR A   1       3.937  45.297  15.623  0.00  0.00    +0.160 C 
ENDROOT
BRANCH   1   2
ATOM      2  N   THR A   1       4.241  46.291  16.650  0.00  0.00    -0.237 NA
ATOM      3  H   THR A   1       3.464  46.772  17.146  0.00  0.00    +0.142 HD
ENDBRANCH   1   2
BRANCH   1   4
ATOM      4  CB  THR A   1       2.728  44.378  16.018  0.00  0.00    +0.134 C 
ATOM      5  CG2 THR A   1       2.960  43.747  17.409  0.00  0.00    +0.034 C 
BRANCH   4   6
ATOM      6  OG1 THR A   1       1.508  45.151  15.978  0.00  0.00    -0.383 OA
ATOM      7  HG1 THR A   1       1.575  45.904  16.617  0.00  0.00    +0.210 HD
ENDBRANCH   4   6
ENDBRANCH   1   4
BRANCH   1   8
ATOM      8  C   THR A   1       3.620  45.932  14.264  0.00  0.00    +0.227 C 
ATOM      9  O   THR A   1       3.515  45.220  13.276  0.00  0.00    -0.287 OA
ENDBRANCH   1   8
TORSDOF 4
REMARK  Name = ../refined-set-2016/3g31/3g31_pocket.pdb
REMARK  78 active torsions:
REMARK  status: ('A' for Active; 'I' for Inactive)
REMARK    1  A    between atoms: _2  and  _3
REMARK    2  A    between atoms: _8  and  _10
REMARK    3  A    between atoms: _10  and  _11
REMARK    4  A    between atoms: _10  and  _13
REMARK    5  A    between atoms: _13  and  _14
REMARK    6  A    between atoms: _17  and  _19
REMARK    7  A    between atoms: _19  and  _20
REMARK    8  A    between atoms: _23  and  _25
REMARK    9  A    between atoms: _25  and  _26
REMARK   10  A    between atoms: _25  and  _28
REMARK   11  A    between atoms: _28  and  _29
REMARK   12  A    between atoms: _29  and  _30
REMARK   13  A    between atoms: _30  and  _31
REMARK   14  A    between atoms: _31  and  _32
REMARK   15  A    between atoms: _36  and  _38
REMARK   16  A    between atoms: _38  and  _39
REMARK   17  A    between atoms: _38  and  _41
REMARK   18  A    between atoms: _41  and  _42
REMARK   19  A    between atoms: _47  and  _49
REMARK   20  A    between atoms: _49  and  _50
REMARK   21  A    between atoms: _49  and  _52
REMARK   22  A    between atoms: _52  and  _53
REMARK   23  A    between atoms: _53  and  _54
REMARK   24  A    between atoms: _56  and  _58
REMARK   25  A    between atoms: _58  and  _59
REMARK   26  A    between atoms: _58  and  _61
REMARK   27  A    between atoms: _61  and  _62
REMARK   28  A    between atoms: _65  and  _67
REMARK   29  A    between atoms: _67  and  _68
REMARK   30  A    between atoms: _71  and  _73
REMARK   31  A    between atoms: _73  and  _74
REMARK   32  A    between atoms: _73  and  _76
REMARK   33  A    between atoms: _76  and  _77
REMARK   34  A    between atoms: _77  and  _78
REMARK   35  A    between atoms: _81  and  _83
REMARK   36  A    between atoms: _83  and  _84
REMARK   37  A    between atoms: _83  and  _86
REMARK   38  A    between atoms: _86  and  _87
REMARK   39  A    between atoms: _90  and  _92
REMARK   40  A    between atoms: _92  and  _93
REMARK   41  A    between atoms: _92  and  _95
REMARK   42  A    between atoms: _95  and  _96
REMARK   43  A    between atoms: _98  and  _100
REMARK   44  A    between atoms: _100  and  _101
REMARK   45  A    between atoms: _104  and  _106
REMARK   46  A    between atoms: _106  and  _107
REMARK   47  A    between atoms: _110  and  _112
REMARK   48  A    between atoms: _112  and  _113
REMARK   49  A    between atoms: _116  and  _118
REMARK   50  A    between atoms: _118  and  _119
REMARK   51  A    between atoms: _118  and  _121
REMARK   52  A    between atoms: _121  and  _122
REMARK   53  A    between atoms: _125  and  _127
REMARK   54  A    between atoms: _127  and  _128
REMARK   55  A    between atoms: _127  and  _130
REMARK   56  A    between atoms: _130  and  _131
REMARK   57  A    between atoms: _131  and  _132
REMARK   58  A    between atoms: _137  and  _139
REMARK   59  A    between atoms: _139  and  _140
REMARK   60  A    between atoms: _139  and  _142
REMARK   61  A    between atoms: _142  and  _143
REMARK   62  A    between atoms: _148  and  _149
REMARK   63  A    between atoms: _151  and  _153
REMARK   64  A    between atoms: _153  and  _154
REMARK   65  A    between atoms: _153  and  _156
REMARK   66  A    between atoms: _156  and  _157
REMARK   67  A    between atoms: _160  and  _162
REMARK   68  A    between atoms: _162  and  _163
REMARK   69  A    between atoms: _166  and  _168
REMARK   70  A    between atoms: _168  and  _169
REMARK   71  A    between atoms: _168  and  _171
REMARK   72  A    between atoms: _171  and  _172
REMARK   73  A    between atoms: _182  and  _184
REMARK   74  A    between atoms: _184  and  _185
REMARK   75  A    between atoms: _187  and  _189
REMARK   76  A    between atoms: _189  and  _190
REMARK   77  A    between atoms: _189  and  _192
REMARK   78  A    between atoms: _192  and  _193
REMARK                            x       y       z     vdW  Elec       q    Type
REMARK                         _______ _______ _______ _____ _____    ______ ____
ROOT
ATOM      1  O   HOH     1       7.246  45.537  28.659  0.00  0.00    +0.000 OA
ENDROOT
TORSDOF 0
REMARK  Name = ../refined-set-2016/3g31/3g31_pocket.pdb
REMARK  78 active torsions:
REMARK  status: ('A' for Active; 'I' for Inactive)
REMARK    1  A    between atoms: _2  and  _3
REMARK    2  A    between atoms: _8  and  _10
REMARK    3  A    between atoms: _10  and  _11
REMARK    4  A    between atoms: _10  and  _13
REMARK    5  A    between atoms: _13  and  _14
REMARK    6  A    between atoms: _17  and  _19
REMARK    7  A    between atoms: _19  and  _20
REMARK    8  A    between atoms: _23  and  _25
REMARK    9  A    between atoms: _25  and  _26
REMARK   10  A    between atoms: _25  and  _28
REMARK   11  A    between atoms: _28  and  _29
REMARK   12  A    between atoms: _29  and  _30
REMARK   13  A    between atoms: _30  and  _31
REMARK   14  A    between atoms: _31  and  _32
REMARK   15  A    between atoms: _36  and  _38
REMARK   16  A    between atoms: _38  and  _39
REMARK   17  A    between atoms: _38  and  _41
REMARK   18  A    between atoms: _41  and  _42
REMARK   19  A    between atoms: _47  and  _49
REMARK   20  A    between atoms: _49  and  _50
REMARK   21  A    between atoms: _49  and  _52
REMARK   22  A    between atoms: _52  and  _53
REMARK   23  A    between atoms: _53  and  _54
REMARK   24  A    between atoms: _56  and  _58
REMARK   25  A    between atoms: _58  and  _59
REMARK   26  A    between atoms: _58  and  _61
REMARK   27  A    between atoms: _61  and  _62
REMARK   28  A    between atoms: _65  and  _67
REMARK   29  A    between atoms: _67  and  _68
REMARK   30  A    between atoms: _71  and  _73
REMARK   31  A    between atoms: _73  and  _74
REMARK   32  A    between atoms: _73  and  _76
REMARK   33  A    between atoms: _76  and  _77
REMARK   34  A    between atoms: _77  and  _78
REMARK   35  A    between atoms: _81  and  _83
REMARK   36  A    between atoms: _83  and  _84
REMARK   37  A    between atoms: _83  and  _86
REMARK   38  A    between atoms: _86  and  _87
REMARK   39  A    between atoms: _90  and  _92
REMARK   40  A    between atoms: _92  and  _93
REMARK   41  A    between atoms: _92  and  _95
REMARK   42  A    between atoms: _95  and  _96
REMARK   43  A    between atoms: _98  and  _100
REMARK   44  A    between atoms: _100  and  _101
REMARK   45  A    between atoms: _104  and  _106
REMARK   46  A    between atoms: _106  and  _107
REMARK   47  A    between atoms: _110  and  _112
REMARK   48  A    between atoms: _112  and  _113
REMARK   49  A    between atoms: _116  and  _118
REMARK   50  A    between atoms: _118  and  _119
REMARK   51  A    between atoms: _118  and  _121
REMARK   52  A    between atoms: _121  and  _122
REMARK   53  A    between atoms: _125  and  _127
REMARK   54  A    between atoms: _127  and  _128
REMARK   55  A    between atoms: _127  and  _130
REMARK   56  A    between atoms: _130  and  _131
REMARK   57  A    between atoms: _131  and  _132
REMARK   58  A    between atoms: _137  and  _139
REMARK   59  A    between atoms: _139  and  _140
REMARK   60  A    between atoms: _139  and  _142
REMARK   61  A    between atoms: _142  and  _143
REMARK   62  A    between atoms: _148  and  _149
REMARK   63  A    between atoms: _151  and  _153
REMARK   64  A    between atoms: _153  and  _154
REMARK   65  A    between atoms: _153  and  _156
REMARK   66  A    between atoms: _156  and  _157
REMARK   67  A    between atoms: _160  and  _162
REMARK   68  A    between atoms: _162  and  _163
REMARK   69  A    between atoms: _166  and  _168
REMARK   70  A    between atoms: _168  and  _169
REMARK   71  A    between atoms: _168  and  _171
REMARK   72  A    between atoms: _171  and  _172
REMARK   73  A    between atoms: _182  and  _184
REMARK   74  A    between atoms: _184  and  _185
REMARK   75  A    between atoms: _187  and  _189
REMARK   76  A    between atoms: _189  and  _190
REMARK   77  A    between atoms: _189  and  _192
REMARK   78  A    between atoms: _192  and  _193
REMARK                            x       y       z     vdW  Elec       q    Type
REMARK                         _______ _______ _______ _____ _____    ______ ____
ROOT
ATOM      1  O   HOH     1      -4.862  40.249  26.174  0.00  0.00    +0.000 OA
ENDROOT
TORSDOF 0
REMARK  Name = ../refined-set-2016/3g31/3g31_pocket.pdb
REMARK  78 active torsions:
REMARK  status: ('A' for Active; 'I' for Inactive)
REMARK    1  A    between atoms: _2  and  _3
REMARK    2  A    between atoms: _8  and  _10
REMARK    3  A    between atoms: _10  and  _11
REMARK    4  A    between atoms: _10  and  _13
REMARK    5  A    between atoms: _13  and  _14
REMARK    6  A    between atoms: _17  and  _19
REMARK    7  A    between atoms: _19  and  _20
REMARK    8  A    between atoms: _23  and  _25
REMARK    9  A    between atoms: _25  and  _26
REMARK   10  A    between atoms: _25  and  _28
REMARK   11  A    between atoms: _28  and  _29
REMARK   12  A    between atoms: _29  and  _30
REMARK   13  A    between atoms: _30  and  _31
REMARK   14  A    between atoms: _31  and  _32
REMARK   15  A    between atoms: _36  and  _38
REMARK   16  A    between atoms: _38  and  _39
REMARK   17  A    between atoms: _38  and  _41
REMARK   18  A    between atoms: _41  and  _42
REMARK   19  A    between atoms: _47  and  _49
REMARK   20  A    between atoms: _49  and  _50
REMARK   21  A    between atoms: _49  and  _52
REMARK   22  A    between atoms: _52  and  _53
REMARK   23  A    between atoms: _53  and  _54
REMARK   24  A    between atoms: _56  and  _58
REMARK   25  A    between atoms: _58  and  _59
REMARK   26  A    between atoms: _58  and  _61
REMARK   27  A    between atoms: _61  and  _62
REMARK   28  A    between atoms: _65  and  _67
REMARK   29  A    between atoms: _67  and  _68
REMARK   30  A    between atoms: _71  and  _73
REMARK   31  A    between atoms: _73  and  _74
REMARK   32  A    between atoms: _73  and  _76
REMARK   33  A    between atoms: _76  and  _77
REMARK   34  A    between atoms: _77  and  _78
REMARK   35  A    between atoms: _81  and  _83
REMARK   36  A    between atoms: _83  and  _84
REMARK   37  A    between atoms: _83  and  _86
REMARK   38  A    between atoms: _86  and  _87
REMARK   39  A    between atoms: _90  and  _92
REMARK   40  A    between atoms: _92  and  _93
REMARK   41  A    between atoms: _92  and  _95
REMARK   42  A    between atoms: _95  and  _96
REMARK   43  A    between atoms: _98  and  _100
REMARK   44  A    between atoms: _100  and  _101
REMARK   45  A    between atoms: _104  and  _106
REMARK   46  A    between atoms: _106  and  _107
REMARK   47  A    between atoms: _110  and  _112
REMARK   48  A    between atoms: _112  and  _113
REMARK   49  A    between atoms: _116  and  _118
REMARK   50  A    between atoms: _118  and  _119
REMARK   51  A    between atoms: _118  and  _121
REMARK   52  A    between atoms: _121  and  _122
REMARK   53  A    between atoms: _125  and  _127
REMARK   54  A    between atoms: _127  and  _128
REMARK   55  A    between atoms: _127  and  _130
REMARK   56  A    between atoms: _130  and  _131
REMARK   57  A    between atoms: _131  and  _132
REMARK   58  A    between atoms: _137  and  _139
REMARK   59  A    between atoms: _139  and  _140
REMARK   60  A    between atoms: _139  and  _142
REMARK   61  A    between atoms: _142  and  _143
REMARK   62  A    between atoms: _148  and  _149
REMARK   63  A    between atoms: _151  and  _153
REMARK   64  A    between atoms: _153  and  _154
REMARK   65  A    between atoms: _153  and  _156
REMARK   66  A    between atoms: _156  and  _157
REMARK   67  A    between atoms: _160  and  _162
REMARK   68  A    between atoms: _162  and  _163
REMARK   69  A    between atoms: _166  and  _168
REMARK   70  A    between atoms: _168  and  _169
REMARK   71  A    between atoms: _168  and  _171
REMARK   72  A    between atoms: _171  and  _172
REMARK   73  A    between atoms: _182  and  _184
REMARK   74  A    between atoms: _184  and  _185
REMARK   75  A    between atoms: _187  and  _189
REMARK   76  A    between atoms: _189  and  _190
REMARK   77  A    between atoms: _189  and  _192
REMARK   78  A    between atoms: _192  and  _193
REMARK                            x       y       z     vdW  Elec       q    Type
REMARK                         _______ _______ _______ _____ _____    ______ ____
ROOT
ATOM      1  O   HOH     1      -4.223  36.394  24.509  0.00  0.00    +0.000 OA
ENDROOT
TORSDOF 0
REMARK  Name = ../refined-set-2016/3g31/3g31_pocket.pdb
REMARK  78 active torsions:
REMARK  status: ('A' for Active; 'I' for Inactive)
REMARK    1  A    between atoms: _2  and  _3
REMARK    2  A    between atoms: _8  and  _10
REMARK    3  A    between atoms: _10  and  _11
REMARK    4  A    between atoms: _10  and  _13
REMARK    5  A    between atoms: _13  and  _14
REMARK    6  A    between atoms: _17  and  _19
REMARK    7  A    between atoms: _19  and  _20
REMARK    8  A    between atoms: _23  and  _25
REMARK    9  A    between atoms: _25  and  _26
REMARK   10  A    between atoms: _25  and  _28
REMARK   11  A    between atoms: _28  and  _29
REMARK   12  A    between atoms: _29  and  _30
REMARK   13  A    between atoms: _30  and  _31
REMARK   14  A    between atoms: _31  and  _32
REMARK   15  A    between atoms: _36  and  _38
REMARK   16  A    between atoms: _38  and  _39
REMARK   17  A    between atoms: _38  and  _41
REMARK   18  A    between atoms: _41  and  _42
REMARK   19  A    between atoms: _47  and  _49
REMARK   20  A    between atoms: _49  and  _50
REMARK   21  A    between atoms: _49  and  _52
REMARK   22  A    between atoms: _52  and  _53
REMARK   23  A    between atoms: _53  and  _54
REMARK   24  A    between atoms: _56  and  _58
REMARK   25  A    between atoms: _58  and  _59
REMARK   26  A    between atoms: _58  and  _61
REMARK   27  A    between atoms: _61  and  _62
REMARK   28  A    between atoms: _65  and  _67
REMARK   29  A    between atoms: _67  and  _68
REMARK   30  A    between atoms: _71  and  _73
REMARK   31  A    between atoms: _73  and  _74
REMARK   32  A    between atoms: _73  and  _76
REMARK   33  A    between atoms: _76  and  _77
REMARK   34  A    between atoms: _77  and  _78
REMARK   35  A    between atoms: _81  and  _83
REMARK   36  A    between atoms: _83  and  _84
REMARK   37  A    between atoms: _83  and  _86
REMARK   38  A    between atoms: _86  and  _87
REMARK   39  A    between atoms: _90  and  _92
REMARK   40  A    between atoms: _92  and  _93
REMARK   41  A    between atoms: _92  and  _95
REMARK   42  A    between atoms: _95  and  _96
REMARK   43  A    between atoms: _98  and  _100
REMARK   44  A    between atoms: _100  and  _101
REMARK   45  A    between atoms: _104  and  _106
REMARK   46  A    between atoms: _106  and  _107
REMARK   47  A    between atoms: _110  and  _112
REMARK   48  A    between atoms: _112  and  _113
REMARK   49  A    between atoms: _116  and  _118
REMARK   50  A    between atoms: _118  and  _119
REMARK   51  A    between atoms: _118  and  _121
REMARK   52  A    between atoms: _121  and  _122
REMARK   53  A    between atoms: _125  and  _127
REMARK   54  A    between atoms: _127  and  _128
REMARK   55  A    between atoms: _127  and  _130
REMARK   56  A    between atoms: _130  and  _131
REMARK   57  A    between atoms: _131  and  _132
REMARK   58  A    between atoms: _137  and  _139
REMARK   59  A    between atoms: _139  and  _140
REMARK   60  A    between atoms: _139  and  _142
REMARK   61  A    between atoms: _142  and  _143
REMARK   62  A    between atoms: _148  and  _149
REMARK   63  A    between atoms: _151  and  _153
REMARK   64  A    between atoms: _153  and  _154
REMARK   65  A    between atoms: _153  and  _156
REMARK   66  A    between atoms: _156  and  _157
REMARK   67  A    between atoms: _160  and  _162
REMARK   68  A    between atoms: _162  and  _163
REMARK   69  A    between atoms: _166  and  _168
REMARK   70  A    between atoms: _168  and  _169
REMARK   71  A    between atoms: _168  and  _171
REMARK   72  A    between atoms: _171  and  _172
REMARK   73  A    between atoms: _182  and  _184
REMARK   74  A    between atoms: _184  and  _185
REMARK   75  A    between atoms: _187  and  _189
REMARK   76  A    between atoms: _189  and  _190
REMARK   77  A    between atoms: _189  and  _192
REMARK   78  A    between atoms: _192  and  _193
REMARK                            x       y       z     vdW  Elec       q    Type
REMARK                         _______ _______ _______ _____ _____    ______ ____
ROOT
ATOM      1  O   HOH     1      -6.504  41.501  30.770  0.00  0.00    +0.000 OA
ENDROOT
TORSDOF 0
REMARK  Name = ../refined-set-2016/3g31/3g31_pocket.pdb
REMARK  78 active torsions:
REMARK  status: ('A' for Active; 'I' for Inactive)
REMARK    1  A    between atoms: _2  and  _3
REMARK    2  A    between atoms: _8  and  _10
REMARK    3  A    between atoms: _10  and  _11
REMARK    4  A    between atoms: _10  and  _13
REMARK    5  A    between atoms: _13  and  _14
REMARK    6  A    between atoms: _17  and  _19
REMARK    7  A    between atoms: _19  and  _20
REMARK    8  A    between atoms: _23  and  _25
REMARK    9  A    between atoms: _25  and  _26
REMARK   10  A    between atoms: _25  and  _28
REMARK   11  A    between atoms: _28  and  _29
REMARK   12  A    between atoms: _29  and  _30
REMARK   13  A    between atoms: _30  and  _31
REMARK   14  A    between atoms: _31  and  _32
REMARK   15  A    between atoms: _36  and  _38
REMARK   16  A    between atoms: _38  and  _39
REMARK   17  A    between atoms: _38  and  _41
REMARK   18  A    between atoms: _41  and  _42
REMARK   19  A    between atoms: _47  and  _49
REMARK   20  A    between atoms: _49  and  _50
REMARK   21  A    between atoms: _49  and  _52
REMARK   22  A    between atoms: _52  and  _53
REMARK   23  A    between atoms: _53  and  _54
REMARK   24  A    between atoms: _56  and  _58
REMARK   25  A    between atoms: _58  and  _59
REMARK   26  A    between atoms: _58  and  _61
REMARK   27  A    between atoms: _61  and  _62
REMARK   28  A    between atoms: _65  and  _67
REMARK   29  A    between atoms: _67  and  _68
REMARK   30  A    between atoms: _71  and  _73
REMARK   31  A    between atoms: _73  and  _74
REMARK   32  A    between atoms: _73  and  _76
REMARK   33  A    between atoms: _76  and  _77
REMARK   34  A    between atoms: _77  and  _78
REMARK   35  A    between atoms: _81  and  _83
REMARK   36  A    between atoms: _83  and  _84
REMARK   37  A    between atoms: _83  and  _86
REMARK   38  A    between atoms: _86  and  _87
REMARK   39  A    between atoms: _90  and  _92
REMARK   40  A    between atoms: _92  and  _93
REMARK   41  A    between atoms: _92  and  _95
REMARK   42  A    between atoms: _95  and  _96
REMARK   43  A    between atoms: _98  and  _100
REMARK   44  A    between atoms: _100  and  _101
REMARK   45  A    between atoms: _104  and  _106
REMARK   46  A    between atoms: _106  and  _107
REMARK   47  A    between atoms: _110  and  _112
REMARK   48  A    between atoms: _112  and  _113
REMARK   49  A    between atoms: _116  and  _118
REMARK   50  A    between atoms: _118  and  _119
REMARK   51  A    between atoms: _118  and  _121
REMARK   52  A    between atoms: _121  and  _122
REMARK   53  A    between atoms: _125  and  _127
REMARK   54  A    between atoms: _127  and  _128
REMARK   55  A    between atoms: _127  and  _130
REMARK   56  A    between atoms: _130  and  _131
REMARK   57  A    between atoms: _131  and  _132
REMARK   58  A    between atoms: _137  and  _139
REMARK   59  A    between atoms: _139  and  _140
REMARK   60  A    between atoms: _139  and  _142
REMARK   61  A    between atoms: _142  and  _143
REMARK   62  A    between atoms: _148  and  _149
REMARK   63  A    between atoms: _151  and  _153
REMARK   64  A    between atoms: _153  and  _154
REMARK   65  A    between atoms: _153  and  _156
REMARK   66  A    between atoms: _156  and  _157
REMARK   67  A    between atoms: _160  and  _162
REMARK   68  A    between atoms: _162  and  _163
REMARK   69  A    between atoms: _166  and  _168
REMARK   70  A    between atoms: _168  and  _169
REMARK   71  A    between atoms: _168  and  _171
REMARK   72  A    between atoms: _171  and  _172
REMARK   73  A    between atoms: _182  and  _184
REMARK   74  A    between atoms: _184  and  _185
REMARK   75  A    between atoms: _187  and  _189
REMARK   76  A    between atoms: _189  and  _190
REMARK   77  A    between atoms: _189  and  _192
REMARK   78  A    between atoms: _192  and  _193
REMARK                            x       y       z     vdW  Elec       q    Type
REMARK                         _______ _______ _______ _____ _____    ______ ____
ROOT
ATOM      1  O   HOH     1      -4.466  43.600  15.078  0.00  0.00    +0.000 OA
ENDROOT
TORSDOF 0
REMARK  Name = ../refined-set-2016/3g31/3g31_pocket.pdb
REMARK  78 active torsions:
REMARK  status: ('A' for Active; 'I' for Inactive)
REMARK    1  A    between atoms: _2  and  _3
REMARK    2  A    between atoms: _8  and  _10
REMARK    3  A    between atoms: _10  and  _11
REMARK    4  A    between atoms: _10  and  _13
REMARK    5  A    between atoms: _13  and  _14
REMARK    6  A    between atoms: _17  and  _19
REMARK    7  A    between atoms: _19  and  _20
REMARK    8  A    between atoms: _23  and  _25
REMARK    9  A    between atoms: _25  and  _26
REMARK   10  A    between atoms: _25  and  _28
REMARK   11  A    between atoms: _28  and  _29
REMARK   12  A    between atoms: _29  and  _30
REMARK   13  A    between atoms: _30  and  _31
REMARK   14  A    between atoms: _31  and  _32
REMARK   15  A    between atoms: _36  and  _38
REMARK   16  A    between atoms: _38  and  _39
REMARK   17  A    between atoms: _38  and  _41
REMARK   18  A    between atoms: _41  and  _42
REMARK   19  A    between atoms: _47  and  _49
REMARK   20  A    between atoms: _49  and  _50
REMARK   21  A    between atoms: _49  and  _52
REMARK   22  A    between atoms: _52  and  _53
REMARK   23  A    between atoms: _53  and  _54
REMARK   24  A    between atoms: _56  and  _58
REMARK   25  A    between atoms: _58  and  _59
REMARK   26  A    between atoms: _58  and  _61
REMARK   27  A    between atoms: _61  and  _62
REMARK   28  A    between atoms: _65  and  _67
REMARK   29  A    between atoms: _67  and  _68
REMARK   30  A    between atoms: _71  and  _73
REMARK   31  A    between atoms: _73  and  _74
REMARK   32  A    between atoms: _73  and  _76
REMARK   33  A    between atoms: _76  and  _77
REMARK   34  A    between atoms: _77  and  _78
REMARK   35  A    between atoms: _81  and  _83
REMARK   36  A    between atoms: _83  and  _84
REMARK   37  A    between atoms: _83  and  _86
REMARK   38  A    between atoms: _86  and  _87
REMARK   39  A    between atoms: _90  and  _92
REMARK   40  A    between atoms: _92  and  _93
REMARK   41  A    between atoms: _92  and  _95
REMARK   42  A    between atoms: _95  and  _96
REMARK   43  A    between atoms: _98  and  _100
REMARK   44  A    between atoms: _100  and  _101
REMARK   45  A    between atoms: _104  and  _106
REMARK   46  A    between atoms: _106  and  _107
REMARK   47  A    between atoms: _110  and  _112
REMARK   48  A    between atoms: _112  and  _113
REMARK   49  A    between atoms: _116  and  _118
REMARK   50  A    between atoms: _118  and  _119
REMARK   51  A    between atoms: _118  and  _121
REMARK   52  A    between atoms: _121  and  _122
REMARK   53  A    between atoms: _125  and  _127
REMARK   54  A    between atoms: _127  and  _128
REMARK   55  A    between atoms: _127  and  _130
REMARK   56  A    between atoms: _130  and  _131
REMARK   57  A    between atoms: _131  and  _132
REMARK   58  A    between atoms: _137  and  _139
REMARK   59  A    between atoms: _139  and  _140
REMARK   60  A    between atoms: _139  and  _142
REMARK   61  A    between atoms: _142  and  _143
REMARK   62  A    between atoms: _148  and  _149
REMARK   63  A    between atoms: _151  and  _153
REMARK   64  A    between atoms: _153  and  _154
REMARK   65  A    between atoms: _153  and  _156
REMARK   66  A    between atoms: _156  and  _157
REMARK   67  A    between atoms: _160  and  _162
REMARK   68  A    between atoms: _162  and  _163
REMARK   69  A    between atoms: _166  and  _168
REMARK   70  A    between atoms: _168  and  _169
REMARK   71  A    between atoms: _168  and  _171
REMARK   72  A    between atoms: _171  and  _172
REMARK   73  A    between atoms: _182  and  _184
REMARK   74  A    between atoms: _184  and  _185
REMARK   75  A    between atoms: _187  and  _189
REMARK   76  A    between atoms: _189  and  _190
REMARK   77  A    between atoms: _189  and  _192
REMARK   78  A    between atoms: _192  and  _193
REMARK                            x       y       z     vdW  Elec       q    Type
REMARK                         _______ _______ _______ _____ _____    ______ ____
ROOT
ATOM      1  O   HOH     1      -5.859  40.557  18.915  0.00  0.00    +0.000 OA
ENDROOT
TORSDOF 0
REMARK  Name = ../refined-set-2016/3g31/3g31_pocket.pdb
REMARK  78 active torsions:
REMARK  status: ('A' for Active; 'I' for Inactive)
REMARK    1  A    between atoms: _2  and  _3
REMARK    2  A    between atoms: _8  and  _10
REMARK    3  A    between atoms: _10  and  _11
REMARK    4  A    between atoms: _10  and  _13
REMARK    5  A    between atoms: _13  and  _14
REMARK    6  A    between atoms: _17  and  _19
REMARK    7  A    between atoms: _19  and  _20
REMARK    8  A    between atoms: _23  and  _25
REMARK    9  A    between atoms: _25  and  _26
REMARK   10  A    between atoms: _25  and  _28
REMARK   11  A    between atoms: _28  and  _29
REMARK   12  A    between atoms: _29  and  _30
REMARK   13  A    between atoms: _30  and  _31
REMARK   14  A    between atoms: _31  and  _32
REMARK   15  A    between atoms: _36  and  _38
REMARK   16  A    between atoms: _38  and  _39
REMARK   17  A    between atoms: _38  and  _41
REMARK   18  A    between atoms: _41  and  _42
REMARK   19  A    between atoms: _47  and  _49
REMARK   20  A    between atoms: _49  and  _50
REMARK   21  A    between atoms: _49  and  _52
REMARK   22  A    between atoms: _52  and  _53
REMARK   23  A    between atoms: _53  and  _54
REMARK   24  A    between atoms: _56  and  _58
REMARK   25  A    between atoms: _58  and  _59
REMARK   26  A    between atoms: _58  and  _61
REMARK   27  A    between atoms: _61  and  _62
REMARK   28  A    between atoms: _65  and  _67
REMARK   29  A    between atoms: _67  and  _68
REMARK   30  A    between atoms: _71  and  _73
REMARK   31  A    between atoms: _73  and  _74
REMARK   32  A    between atoms: _73  and  _76
REMARK   33  A    between atoms: _76  and  _77
REMARK   34  A    between atoms: _77  and  _78
REMARK   35  A    between atoms: _81  and  _83
REMARK   36  A    between atoms: _83  and  _84
REMARK   37  A    between atoms: _83  and  _86
REMARK   38  A    between atoms: _86  and  _87
REMARK   39  A    between atoms: _90  and  _92
REMARK   40  A    between atoms: _92  and  _93
REMARK   41  A    between atoms: _92  and  _95
REMARK   42  A    between atoms: _95  and  _96
REMARK   43  A    between atoms: _98  and  _100
REMARK   44  A    between atoms: _100  and  _101
REMARK   45  A    between atoms: _104  and  _106
REMARK   46  A    between atoms: _106  and  _107
REMARK   47  A    between atoms: _110  and  _112
REMARK   48  A    between atoms: _112  and  _113
REMARK   49  A    between atoms: _116  and  _118
REMARK   50  A    between atoms: _118  and  _119
REMARK   51  A    between atoms: _118  and  _121
REMARK   52  A    between atoms: _121  and  _122
REMARK   53  A    between atoms: _125  and  _127
REMARK   54  A    between atoms: _127  and  _128
REMARK   55  A    between atoms: _127  and  _130
REMARK   56  A    between atoms: _130  and  _131
REMARK   57  A    between atoms: _131  and  _132
REMARK   58  A    between atoms: _137  and  _139
REMARK   59  A    between atoms: _139  and  _140
REMARK   60  A    between atoms: _139  and  _142
REMARK   61  A    between atoms: _142  and  _143
REMARK   62  A    between atoms: _148  and  _149
REMARK   63  A    between atoms: _151  and  _153
REMARK   64  A    between atoms: _153  and  _154
REMARK   65  A    between atoms: _153  and  _156
REMARK   66  A    between atoms: _156  and  _157
REMARK   67  A    between atoms: _160  and  _162
REMARK   68  A    between atoms: _162  and  _163
REMARK   69  A    between atoms: _166  and  _168
REMARK   70  A    between atoms: _168  and  _169
REMARK   71  A    between atoms: _168  and  _171
REMARK   72  A    between atoms: _171  and  _172
REMARK   73  A    between atoms: _182  and  _184
REMARK   74  A    between atoms: _184  and  _185
REMARK   75  A    between atoms: _187  and  _189
REMARK   76  A    between atoms: _189  and  _190
REMARK   77  A    between atoms: _189  and  _192
REMARK   78  A    between atoms: _192  and  _193
REMARK                            x       y       z     vdW  Elec       q    Type
REMARK                         _______ _______ _______ _____ _____    ______ ____
ROOT
ATOM      1  O   HOH     1      -3.997  41.809  17.157  0.00  0.00    +0.000 OA
ENDROOT
TORSDOF 0
REMARK  Name = ../refined-set-2016/3g31/3g31_pocket.pdb
REMARK  78 active torsions:
REMARK  status: ('A' for Active; 'I' for Inactive)
REMARK    1  A    between atoms: _2  and  _3
REMARK    2  A    between atoms: _8  and  _10
REMARK    3  A    between atoms: _10  and  _11
REMARK    4  A    between atoms: _10  and  _13
REMARK    5  A    between atoms: _13  and  _14
REMARK    6  A    between atoms: _17  and  _19
REMARK    7  A    between atoms: _19  and  _20
REMARK    8  A    between atoms: _23  and  _25
REMARK    9  A    between atoms: _25  and  _26
REMARK   10  A    between atoms: _25  and  _28
REMARK   11  A    between atoms: _28  and  _29
REMARK   12  A    between atoms: _29  and  _30
REMARK   13  A    between atoms: _30  and  _31
REMARK   14  A    between atoms: _31  and  _32
REMARK   15  A    between atoms: _36  and  _38
REMARK   16  A    between atoms: _38  and  _39
REMARK   17  A    between atoms: _38  and  _41
REMARK   18  A    between atoms: _41  and  _42
REMARK   19  A    between atoms: _47  and  _49
REMARK   20  A    between atoms: _49  and  _50
REMARK   21  A    between atoms: _49  and  _52
REMARK   22  A    between atoms: _52  and  _53
REMARK   23  A    between atoms: _53  and  _54
REMARK   24  A    between atoms: _56  and  _58
REMARK   25  A    between atoms: _58  and  _59
REMARK   26  A    between atoms: _58  and  _61
REMARK   27  A    between atoms: _61  and  _62
REMARK   28  A    between atoms: _65  and  _67
REMARK   29  A    between atoms: _67  and  _68
REMARK   30  A    between atoms: _71  and  _73
REMARK   31  A    between atoms: _73  and  _74
REMARK   32  A    between atoms: _73  and  _76
REMARK   33  A    between atoms: _76  and  _77
REMARK   34  A    between atoms: _77  and  _78
REMARK   35  A    between atoms: _81  and  _83
REMARK   36  A    between atoms: _83  and  _84
REMARK   37  A    between atoms: _83  and  _86
REMARK   38  A    between atoms: _86  and  _87
REMARK   39  A    between atoms: _90  and  _92
REMARK   40  A    between atoms: _92  and  _93
REMARK   41  A    between atoms: _92  and  _95
REMARK   42  A    between atoms: _95  and  _96
REMARK   43  A    between atoms: _98  and  _100
REMARK   44  A    between atoms: _100  and  _101
REMARK   45  A    between atoms: _104  and  _106
REMARK   46  A    between atoms: _106  and  _107
REMARK   47  A    between atoms: _110  and  _112
REMARK   48  A    between atoms: _112  and  _113
REMARK   49  A    between atoms: _116  and  _118
REMARK   50  A    between atoms: _118  and  _119
REMARK   51  A    between atoms: _118  and  _121
REMARK   52  A    between atoms: _121  and  _122
REMARK   53  A    between atoms: _125  and  _127
REMARK   54  A    between atoms: _127  and  _128
REMARK   55  A    between atoms: _127  and  _130
REMARK   56  A    between atoms: _130  and  _131
REMARK   57  A    between atoms: _131  and  _132
REMARK   58  A    between atoms: _137  and  _139
REMARK   59  A    between atoms: _139  and  _140
REMARK   60  A    between atoms: _139  and  _142
REMARK   61  A    between atoms: _142  and  _143
REMARK   62  A    between atoms: _148  and  _149
REMARK   63  A    between atoms: _151  and  _153
REMARK   64  A    between atoms: _153  and  _154
REMARK   65  A    between atoms: _153  and  _156
REMARK   66  A    between atoms: _156  and  _157
REMARK   67  A    between atoms: _160  and  _162
REMARK   68  A    between atoms: _162  and  _163
REMARK   69  A    between atoms: _166  and  _168
REMARK   70  A    between atoms: _168  and  _169
REMARK   71  A    between atoms: _168  and  _171
REMARK   72  A    between atoms: _171  and  _172
REMARK   73  A    between atoms: _182  and  _184
REMARK   74  A    between atoms: _184  and  _185
REMARK   75  A    between atoms: _187  and  _189
REMARK   76  A    between atoms: _189  and  _190
REMARK   77  A    between atoms: _189  and  _192
REMARK   78  A    between atoms: _192  and  _193
REMARK                            x       y       z     vdW  Elec       q    Type
REMARK                         _______ _______ _______ _____ _____    ______ ____
ROOT
ATOM      1  O   HOH     1       6.553  44.860  26.013  0.00  0.00    +0.000 OA
ENDROOT
TORSDOF 0
