REMARK  Name = ../refined-set-2016/4dq2/4dq2_pocket.pdb
REMARK  276 active torsions:
REMARK  status: ('A' for Active; 'I' for Inactive)
REMARK    1  A    between atoms: _1  and  _3
REMARK    2  A    between atoms: _3  and  _4
REMARK    3  A    between atoms: _3  and  _6
REMARK    4  A    between atoms: _6  and  _7
REMARK    5  A    between atoms: _10  and  _12
REMARK    6  A    between atoms: _12  and  _13
REMARK    7  A    between atoms: _12  and  _15
REMARK    8  A    between atoms: _15  and  _16
REMARK    9  A    between atoms: _19  and  _21
REMARK   10  A    between atoms: _21  and  _22
REMARK   11  A    between atoms: _21  and  _24
REMARK   12  A    between atoms: _24  and  _25
REMARK   13  A    between atoms: _27  and  _29
REMARK   14  A    between atoms: _29  and  _30
REMARK   15  A    between atoms: _29  and  _32
REMARK   16  A    between atoms: _32  and  _33
REMARK   17  A    between atoms: _36  and  _38
REMARK   18  A    between atoms: _38  and  _39
REMARK   19  A    between atoms: _38  and  _41
REMARK   20  A    between atoms: _41  and  _42
REMARK   21  A    between atoms: _42  and  _43
REMARK   22  A    between atoms: _48  and  _50
REMARK   23  A    between atoms: _50  and  _51
REMARK   24  A    between atoms: _50  and  _53
REMARK   25  A    between atoms: _53  and  _54
REMARK   26  A    between atoms: _57  and  _59
REMARK   27  A    between atoms: _59  and  _60
REMARK   28  A    between atoms: _63  and  _65
REMARK   29  A    between atoms: _65  and  _66
REMARK   30  A    between atoms: _69  and  _71
REMARK   31  A    between atoms: _71  and  _72
REMARK   32  A    between atoms: _71  and  _74
REMARK   33  A    between atoms: _74  and  _75
REMARK   34  A    between atoms: _75  and  _76
REMARK   35  A    between atoms: _76  and  _77
REMARK   36  A    between atoms: _77  and  _78
REMARK   37  A    between atoms: _82  and  _84
REMARK   38  A    between atoms: _84  and  _85
REMARK   39  A    between atoms: _84  and  _87
REMARK   40  A    between atoms: _87  and  _88
REMARK   41  A    between atoms: _91  and  _93
REMARK   42  A    between atoms: _93  and  _94
REMARK   43  A    between atoms: _93  and  _96
REMARK   44  A    between atoms: _96  and  _97
REMARK   45  A    between atoms: _99  and  _101
REMARK   46  A    between atoms: _101  and  _102
REMARK   47  A    between atoms: _101  and  _104
REMARK   48  A    between atoms: _104  and  _105
REMARK   49  A    between atoms: _105  and  _106
REMARK   50  A    between atoms: _111  and  _113
REMARK   51  A    between atoms: _113  and  _114
REMARK   52  A    between atoms: _113  and  _116
REMARK   53  A    between atoms: _116  and  _117
REMARK   54  A    between atoms: _120  and  _122
REMARK   55  A    between atoms: _122  and  _123
REMARK   56  A    between atoms: _122  and  _125
REMARK   57  A    between atoms: _125  and  _126
REMARK   58  A    between atoms: _126  and  _127
REMARK   59  A    between atoms: _127  and  _128
REMARK   60  A    between atoms: _128  and  _129
REMARK   61  A    between atoms: _133  and  _135
REMARK   62  A    between atoms: _135  and  _136
REMARK   63  A    between atoms: _138  and  _140
REMARK   64  A    between atoms: _140  and  _141
REMARK   65  A    between atoms: _140  and  _143
REMARK   66  A    between atoms: _143  and  _144
REMARK   67  A    between atoms: _144  and  _145
REMARK   68  A    between atoms: _145  and  _146
REMARK   69  A    between atoms: _155  and  _157
REMARK   70  A    between atoms: _157  and  _158
REMARK   71  A    between atoms: _160  and  _162
REMARK   72  A    between atoms: _162  and  _163
REMARK   73  A    between atoms: _162  and  _165
REMARK   74  A    between atoms: _165  and  _166
REMARK   75  A    between atoms: _166  and  _167
REMARK   76  A    between atoms: _167  and  _168
REMARK   77  A    between atoms: _177  and  _179
REMARK   78  A    between atoms: _179  and  _180
REMARK   79  A    between atoms: _179  and  _182
REMARK   80  A    between atoms: _182  and  _183
REMARK   81  A    between atoms: _189  and  _191
REMARK   82  A    between atoms: _191  and  _192
REMARK   83  A    between atoms: _191  and  _194
REMARK   84  A    between atoms: _194  and  _195
REMARK   85  A    between atoms: _200  and  _202
REMARK   86  A    between atoms: _202  and  _203
REMARK   87  A    between atoms: _202  and  _205
REMARK   88  A    between atoms: _205  and  _206
REMARK   89  A    between atoms: _206  and  _207
REMARK   90  A    between atoms: _207  and  _208
REMARK   91  A    between atoms: _217  and  _219
REMARK   92  A    between atoms: _219  and  _220
REMARK   93  A    between atoms: _219  and  _222
REMARK   94  A    between atoms: _222  and  _223
REMARK   95  A    between atoms: _228  and  _230
REMARK   96  A    between atoms: _230  and  _231
REMARK   97  A    between atoms: _230  and  _233
REMARK   98  A    between atoms: _233  and  _234
REMARK   99  A    between atoms: _244  and  _246
REMARK  100  A    between atoms: _246  and  _247
REMARK  101  A    between atoms: _246  and  _249
REMARK  102  A    between atoms: _249  and  _250
REMARK  103  A    between atoms: _252  and  _254
REMARK  104  A    between atoms: _254  and  _255
REMARK  105  A    between atoms: _254  and  _257
REMARK  106  A    between atoms: _257  and  _258
REMARK  107  A    between atoms: _260  and  _262
REMARK  108  A    between atoms: _262  and  _263
REMARK  109  A    between atoms: _262  and  _265
REMARK  110  A    between atoms: _265  and  _266
REMARK  111  A    between atoms: _268  and  _270
REMARK  112  A    between atoms: _270  and  _271
REMARK  113  A    between atoms: _273  and  _275
REMARK  114  A    between atoms: _275  and  _276
REMARK  115  A    between atoms: _275  and  _278
REMARK  116  A    between atoms: _278  and  _279
REMARK  117  A    between atoms: _282  and  _284
REMARK  118  A    between atoms: _284  and  _285
REMARK  119  A    between atoms: _284  and  _287
REMARK  120  A    between atoms: _287  and  _288
REMARK  121  A    between atoms: _298  and  _300
REMARK  122  A    between atoms: _300  and  _301
REMARK  123  A    between atoms: _300  and  _303
REMARK  124  A    between atoms: _303  and  _304
REMARK  125  A    between atoms: _304  and  _305
REMARK  126  A    between atoms: _307  and  _309
REMARK  127  A    between atoms: _309  and  _310
REMARK  128  A    between atoms: _309  and  _312
REMARK  129  A    between atoms: _312  and  _313
REMARK  130  A    between atoms: _315  and  _317
REMARK  131  A    between atoms: _317  and  _318
REMARK  132  A    between atoms: _317  and  _320
REMARK  133  A    between atoms: _323  and  _325
REMARK  134  A    between atoms: _325  and  _326
REMARK  135  A    between atoms: _325  and  _328
REMARK  136  A    between atoms: _328  and  _329
REMARK  137  A    between atoms: _329  and  _330
REMARK  138  A    between atoms: _330  and  _331
REMARK  139  A    between atoms: _331  and  _332
REMARK  140  A    between atoms: _336  and  _338
REMARK  141  A    between atoms: _338  and  _339
REMARK  142  A    between atoms: _338  and  _341
REMARK  143  A    between atoms: _341  and  _342
REMARK  144  A    between atoms: _347  and  _349
REMARK  145  A    between atoms: _349  and  _350
REMARK  146  A    between atoms: _349  and  _352
REMARK  147  A    between atoms: _352  and  _353
REMARK  148  A    between atoms: _356  and  _358
REMARK  149  A    between atoms: _358  and  _359
REMARK  150  A    between atoms: _358  and  _361
REMARK  151  A    between atoms: _361  and  _362
REMARK  152  A    between atoms: _365  and  _367
REMARK  153  A    between atoms: _367  and  _368
REMARK  154  A    between atoms: _367  and  _370
REMARK  155  A    between atoms: _370  and  _371
REMARK  156  A    between atoms: _376  and  _377
REMARK  157  A    between atoms: _379  and  _381
REMARK  158  A    between atoms: _381  and  _382
REMARK  159  A    between atoms: _384  and  _386
REMARK  160  A    between atoms: _386  and  _387
REMARK  161  A    between atoms: _386  and  _389
REMARK  162  A    between atoms: _389  and  _390
REMARK  163  A    between atoms: _390  and  _391
REMARK  164  A    between atoms: _391  and  _392
REMARK  165  A    between atoms: _392  and  _393
REMARK  166  A    between atoms: _397  and  _399
REMARK  167  A    between atoms: _399  and  _400
REMARK  168  A    between atoms: _399  and  _402
REMARK  169  A    between atoms: _405  and  _407
REMARK  170  A    between atoms: _407  and  _408
REMARK  171  A    between atoms: _407  and  _410
REMARK  172  A    between atoms: _412  and  _414
REMARK  173  A    between atoms: _414  and  _415
REMARK  174  A    between atoms: _417  and  _419
REMARK  175  A    between atoms: _419  and  _420
REMARK  176  A    between atoms: _419  and  _422
REMARK  177  A    between atoms: _422  and  _423
REMARK  178  A    between atoms: _429  and  _431
REMARK  179  A    between atoms: _431  and  _432
REMARK  180  A    between atoms: _431  and  _434
REMARK  181  A    between atoms: _434  and  _435
REMARK  182  A    between atoms: _438  and  _440
REMARK  183  A    between atoms: _440  and  _441
REMARK  184  A    between atoms: _440  and  _443
REMARK  185  A    between atoms: _443  and  _444
REMARK  186  A    between atoms: _447  and  _449
REMARK  187  A    between atoms: _449  and  _450
REMARK  188  A    between atoms: _449  and  _452
REMARK  189  A    between atoms: _452  and  _453
REMARK  190  A    between atoms: _453  and  _454
REMARK  191  A    between atoms: _457  and  _459
REMARK  192  A    between atoms: _459  and  _460
REMARK  193  A    between atoms: _459  and  _462
REMARK  194  A    between atoms: _462  and  _463
REMARK  195  A    between atoms: _466  and  _468
REMARK  196  A    between atoms: _468  and  _469
REMARK  197  A    between atoms: _468  and  _471
REMARK  198  A    between atoms: _473  and  _475
REMARK  199  A    between atoms: _475  and  _476
REMARK  200  A    between atoms: _478  and  _480
REMARK  201  A    between atoms: _480  and  _481
REMARK  202  A    between atoms: _480  and  _483
REMARK  203  A    between atoms: _483  and  _484
REMARK  204  A    between atoms: _487  and  _489
REMARK  205  A    between atoms: _489  and  _490
REMARK  206  A    between atoms: _492  and  _494
REMARK  207  A    between atoms: _494  and  _495
REMARK  208  A    between atoms: _494  and  _497
REMARK  209  A    between atoms: _497  and  _498
REMARK  210  A    between atoms: _501  and  _503
REMARK  211  A    between atoms: _503  and  _504
REMARK  212  A    between atoms: _503  and  _506
REMARK  213  A    between atoms: _506  and  _507
REMARK  214  A    between atoms: _512  and  _514
REMARK  215  A    between atoms: _514  and  _515
REMARK  216  A    between atoms: _514  and  _517
REMARK  217  A    between atoms: _517  and  _518
REMARK  218  A    between atoms: _521  and  _523
REMARK  219  A    between atoms: _523  and  _524
REMARK  220  A    between atoms: _523  and  _526
REMARK  221  A    between atoms: _526  and  _527
REMARK  222  A    between atoms: _527  and  _528
REMARK  223  A    between atoms: _533  and  _535
REMARK  224  A    between atoms: _535  and  _536
REMARK  225  A    between atoms: _535  and  _538
REMARK  226  A    between atoms: _538  and  _539
REMARK  227  A    between atoms: _545  and  _547
REMARK  228  A    between atoms: _547  and  _548
REMARK  229  A    between atoms: _547  and  _550
REMARK  230  A    between atoms: _550  and  _551
REMARK  231  A    between atoms: _554  and  _556
REMARK  232  A    between atoms: _556  and  _557
REMARK  233  A    between atoms: _556  and  _559
REMARK  234  A    between atoms: _559  and  _560
REMARK  235  A    between atoms: _562  and  _564
REMARK  236  A    between atoms: _564  and  _565
REMARK  237  A    between atoms: _564  and  _567
REMARK  238  A    between atoms: _567  and  _568
REMARK  239  A    between atoms: _571  and  _573
REMARK  240  A    between atoms: _573  and  _574
REMARK  241  A    between atoms: _573  and  _576
REMARK  242  A    between atoms: _576  and  _577
REMARK  243  A    between atoms: _577  and  _578
REMARK  244  A    between atoms: _578  and  _579
REMARK  245  A    between atoms: _588  and  _590
REMARK  246  A    between atoms: _590  and  _591
REMARK  247  A    between atoms: _590  and  _593
REMARK  248  A    between atoms: _593  and  _594
REMARK  249  A    between atoms: _594  and  _595
REMARK  250  A    between atoms: _595  and  _596
REMARK  251  A    between atoms: _605  and  _607
REMARK  252  A    between atoms: _607  and  _608
REMARK  253  A    between atoms: _611  and  _613
REMARK  254  A    between atoms: _613  and  _614
REMARK  255  A    between atoms: _613  and  _616
REMARK  256  A    between atoms: _616  and  _617
REMARK  257  A    between atoms: _620  and  _622
REMARK  258  A    between atoms: _622  and  _623
REMARK  259  A    between atoms: _622  and  _625
REMARK  260  A    between atoms: _625  and  _626
REMARK  261  A    between atoms: _628  and  _630
REMARK  262  A    between atoms: _630  and  _631
REMARK  263  A    between atoms: _630  and  _633
REMARK  264  A    between atoms: _633  and  _634
REMARK  265  A    between atoms: _637  and  _639
REMARK  266  A    between atoms: _639  and  _640
REMARK  267  A    between atoms: _639  and  _642
REMARK  268  A    between atoms: _642  and  _643
REMARK  269  A    between atoms: _646  and  _648
REMARK  270  A    between atoms: _648  and  _649
REMARK  271  A    between atoms: _648  and  _651
REMARK  272  A    between atoms: _651  and  _652
REMARK  273  A    between atoms: _655  and  _657
REMARK  274  A    between atoms: _657  and  _658
REMARK  275  A    between atoms: _657  and  _660
REMARK  276  A    between atoms: _660  and  _661
REMARK                            x       y       z     vdW  Elec       q    Type
REMARK                         _______ _______ _______ _____ _____    ______ ____
ROOT
ATOM      1  CA  GLN A   5      46.960   9.895  26.472  0.00  0.00    +0.149 C 
ENDROOT
BRANCH   1   2
ATOM      2  C   GLN A   5      47.474   8.561  27.090  0.00  0.00    +0.241 C 
ATOM      3  N   LEU A   6      48.462   8.636  27.957  0.00  0.00    -0.297 N 
ATOM      4  H   LEU A   6      48.973   9.534  28.078  0.00  0.00    +0.150 HD
ATOM      5  O   GLN A   5      47.010   7.463  26.746  0.00  0.00    -0.273 OA
BRANCH   3   6
ATOM      6  CA  LEU A   6      48.851   7.464  28.756  0.00  0.00    +0.149 C 
BRANCH   6   7
ATOM      7  C   LEU A   6      47.649   6.900  29.544  0.00  0.00    +0.241 C 
ATOM      8  N   ALA A   7      46.951   7.775  30.263  0.00  0.00    -0.297 N 
ATOM      9  H   ALA A   7      47.210   8.781  30.214  0.00  0.00    +0.150 HD
ATOM     10  O   LEU A   6      47.363   5.694  29.472  0.00  0.00    -0.273 OA
BRANCH   8  11
ATOM     11  CA  ALA A   7      45.859   7.386  31.100  0.00  0.00    +0.149 C 
ATOM     12  CB  ALA A   7      45.255   8.641  31.711  0.00  0.00    +0.031 C 
BRANCH  11  13
ATOM     13  C   ALA A   7      44.817   6.628  30.238  0.00  0.00    +0.241 C 
ATOM     14  O   ALA A   7      44.368   5.474  30.601  0.00  0.00    -0.273 OA
ATOM     15  N   ALA A   8      44.495   7.205  29.056  0.00  0.00    -0.297 N 
ATOM     16  H   ALA A   8      44.951   8.094  28.769  0.00  0.00    +0.150 HD
BRANCH  15  17
ATOM     17  CA  ALA A   8      43.498   6.571  28.178  0.00  0.00    +0.149 C 
ATOM     18  CB  ALA A   8      42.994   7.449  27.070  0.00  0.00    +0.031 C 
BRANCH  17  19
ATOM     19  C   ALA A   8      44.003   5.284  27.648  0.00  0.00    +0.241 C 
ATOM     20  O   ALA A   8      43.250   4.337  27.575  0.00  0.00    -0.273 OA
ATOM     21  N   LYS A   9      45.257   5.198  27.258  0.00  0.00    -0.298 N 
ATOM     22  H   LYS A   9      45.900   6.013  27.324  0.00  0.00    +0.150 HD
BRANCH  21  23
ATOM     23  CA  LYS A   9      45.715   3.908  26.726  0.00  0.00    +0.137 C 
BRANCH  23  24
ATOM     24  C   LYS A   9      45.657   2.820  27.795  0.00  0.00    +0.227 C 
ATOM     25  O   LYS A   9      45.574   1.664  27.427  0.00  0.00    -0.286 OA
ENDBRANCH  23  24
BRANCH  23  26
ATOM     26  CB  LYS A   9      47.125   3.999  26.213  0.00  0.00    +0.028 C 
BRANCH  26  27
ATOM     27  CG  LYS A   9      47.199   4.743  24.932  0.00  0.00    -0.000 C 
BRANCH  27  28
ATOM     28  CD  LYS A   9      48.650   5.105  24.604  0.00  0.00    -0.024 C 
BRANCH  28  29
ATOM     29  CE  LYS A   9      48.731   5.678  23.215  0.00  0.00    -0.086 C 
BRANCH  29  30
ATOM     30  NZ  LYS A   9      50.096   6.231  22.932  0.00  0.00    +0.380 N 
ATOM     31  HZ1 LYS A   9      50.311   6.985  23.615  0.00  0.00    -0.089 HD
ATOM     32  HZ2 LYS A   9      50.801   5.472  23.019  0.00  0.00    -0.089 HD
ATOM     33  HZ3 LYS A   9      50.119   6.618  21.967  0.00  0.00    -0.089 HD
ENDBRANCH  29  30
ENDBRANCH  28  29
ENDBRANCH  27  28
ENDBRANCH  26  27
ENDBRANCH  23  26
ENDBRANCH  21  23
ENDBRANCH  17  19
ENDBRANCH  15  17
ENDBRANCH  11  13
ENDBRANCH   8  11
ENDBRANCH   6   7
BRANCH   6  34
ATOM     34  CB  LEU A   6      49.991   7.839  29.701  0.00  0.00    +0.029 C 
BRANCH  34  35
ATOM     35  CG  LEU A   6      51.270   8.380  29.011  0.00  0.00    +0.002 C 
ATOM     36  CD2 LEU A   6      52.354   8.820  30.081  0.00  0.00    +0.000 C 
ATOM     37  CD1 LEU A   6      51.894   7.405  27.953  0.00  0.00    +0.000 C 
ENDBRANCH  34  35
ENDBRANCH   6  34
ENDBRANCH   3   6
ENDBRANCH   1   2
BRANCH   1  40
ATOM     38  C   THR A   4      45.718  10.919  28.362  0.00  0.00    +0.243 C 
ATOM     39  O   THR A   4      44.926   9.977  28.463  0.00  0.00    -0.273 OA
ATOM     40  N   GLN A   5      46.728  10.942  27.479  0.00  0.00    -0.297 N 
ATOM     41  H   GLN A   5      47.385  11.747  27.508  0.00  0.00    +0.150 HD
BRANCH  38  42
ATOM     42  CA  THR A   4      45.652  12.084  29.339  0.00  0.00    +0.176 C 
BRANCH  42  45
ATOM     43  C   SER A   3      47.913  11.959  30.136  0.00  0.00    +0.243 C 
ATOM     44  O   SER A   3      47.736  10.766  30.534  0.00  0.00    -0.273 OA
ATOM     45  N   THR A   4      46.945  12.691  29.619  0.00  0.00    -0.295 N 
ATOM     46  H   THR A   4      47.105  13.698  29.412  0.00  0.00    +0.150 HD
BRANCH  43  47
ATOM     47  CA  SER A   3      49.300  12.624  30.242  0.00  0.00    +0.178 C 
BRANCH  47  49
ATOM     48  C   ASP A   2      50.985  12.963  31.981  0.00  0.00    +0.241 C 
ATOM     49  N   SER A   3      49.872  12.353  31.553  0.00  0.00    -0.295 N 
ATOM     50  H   SER A   3      49.402  11.665  32.176  0.00  0.00    +0.150 HD
ATOM     51  O   ASP A   2      51.538  13.869  31.314  0.00  0.00    -0.273 OA
BRANCH  48  52
ATOM     52  CA  ASP A   2      51.486  12.591  33.423  0.00  0.00    +0.160 C 
BRANCH  52  54
ATOM     53  C   ILE A   1      49.775  13.770  34.696  0.00  0.00    +0.238 C 
ATOM     54  N   ASP A   2      50.406  12.625  34.462  0.00  0.00    -0.297 N 
ATOM     55  H   ASP A   2      50.155  11.766  34.991  0.00  0.00    +0.150 HD
ATOM     56  O   ILE A   1      50.113  14.839  34.159  0.00  0.00    -0.274 OA
BRANCH  53  57
ATOM     57  CA  ILE A   1      48.665  13.782  35.712  0.00  0.00    +0.145 C 
BRANCH  57  58
ATOM     58  N   ILE A   1      48.416  15.188  36.030  0.00  0.00    -0.238 NA
ATOM     59  H   ILE A   1      48.791  15.929  35.403  0.00  0.00    +0.142 HD
ENDBRANCH  57  58
BRANCH  57  60
ATOM     60  CB  ILE A   1      47.383  13.178  35.202  0.00  0.00    +0.025 C 
ATOM     61  CG2 ILE A   1      47.080  13.377  33.622  0.00  0.00    +0.002 C 
BRANCH  60  62
ATOM     62  CG1 ILE A   1      47.350  11.705  35.358  0.00  0.00    +0.002 C 
ATOM     63  CD1 ILE A   1      46.411  11.244  34.105  0.00  0.00    +0.000 C 
ENDBRANCH  60  62
ENDBRANCH  57  60
ENDBRANCH  53  57
ENDBRANCH  52  54
BRANCH  52  64
ATOM     64  CB  ASP A   2      52.328  11.324  33.523  0.00  0.00    +0.143 C 
BRANCH  64  65
ATOM     65  CG  ASP A   2      51.506  10.034  33.467  0.00  0.00    +0.367 C 
ATOM     66  OD2 ASP A   2      52.100   8.962  33.849  0.00  0.00    -0.246 OA
ATOM     67  OD1 ASP A   2      50.291  10.074  33.047  0.00  0.00    -0.246 OA
ENDBRANCH  64  65
ENDBRANCH  52  64
ENDBRANCH  48  52
ENDBRANCH  47  49
BRANCH  47  68
ATOM     68  CB  SER A   3      50.213  12.041  29.121  0.00  0.00    +0.166 C 
BRANCH  68  69
ATOM     69  OG  SER A   3      49.538  12.027  27.831  0.00  0.00    -0.380 OA
ATOM     70  H   SER A   3      50.146  11.652  27.146  0.00  0.00    +0.211 HD
ENDBRANCH  68  69
ENDBRANCH  47  68
ENDBRANCH  43  47
ENDBRANCH  42  45
BRANCH  42  71
ATOM     71  CB  THR A   4      44.643  13.064  28.800  0.00  0.00    +0.137 C 
ATOM     72  CG2 THR A   4      44.326  14.219  29.894  0.00  0.00    +0.034 C 
BRANCH  71  73
ATOM     73  OG1 THR A   4      45.154  13.649  27.605  0.00  0.00    -0.382 OA
ATOM     74  HG1 THR A   4      45.320  12.938  26.936  0.00  0.00    +0.210 HD
ENDBRANCH  71  73
ENDBRANCH  42  71
ENDBRANCH  38  42
ENDBRANCH   1  40
BRANCH   1  75
ATOM     75  CB  GLN A   5      47.916  10.471  25.357  0.00  0.00    +0.039 C 
BRANCH  75  76
ATOM     76  CG  GLN A   5      47.934   9.769  24.048  0.00  0.00    +0.087 C 
BRANCH  76  77
ATOM     77  CD  GLN A   5      46.706  10.015  23.119  0.00  0.00    +0.219 C 
ATOM     78  NE2 GLN A   5      45.709  10.755  23.594  0.00  0.00    -0.329 N 
ATOM     79 HE21 GLN A   5      45.779  11.174  24.543  0.00  0.00    +0.145 HD
ATOM     80 HE22 GLN A   5      44.859  10.915  23.016  0.00  0.00    +0.145 HD
ATOM     81  OE1 GLN A   5      46.668   9.488  21.979  0.00  0.00    -0.275 OA
ENDBRANCH  76  77
ENDBRANCH  75  76
ENDBRANCH   1  75
TORSDOF 36
REMARK  Name = ../refined-set-2016/4dq2/4dq2_pocket.pdb
REMARK  276 active torsions:
REMARK  status: ('A' for Active; 'I' for Inactive)
REMARK    1  A    between atoms: _1  and  _3
REMARK    2  A    between atoms: _3  and  _4
REMARK    3  A    between atoms: _3  and  _6
REMARK    4  A    between atoms: _6  and  _7
REMARK    5  A    between atoms: _10  and  _12
REMARK    6  A    between atoms: _12  and  _13
REMARK    7  A    between atoms: _12  and  _15
REMARK    8  A    between atoms: _15  and  _16
REMARK    9  A    between atoms: _19  and  _21
REMARK   10  A    between atoms: _21  and  _22
REMARK   11  A    between atoms: _21  and  _24
REMARK   12  A    between atoms: _24  and  _25
REMARK   13  A    between atoms: _27  and  _29
REMARK   14  A    between atoms: _29  and  _30
REMARK   15  A    between atoms: _29  and  _32
REMARK   16  A    between atoms: _32  and  _33
REMARK   17  A    between atoms: _36  and  _38
REMARK   18  A    between atoms: _38  and  _39
REMARK   19  A    between atoms: _38  and  _41
REMARK   20  A    between atoms: _41  and  _42
REMARK   21  A    between atoms: _42  and  _43
REMARK   22  A    between atoms: _48  and  _50
REMARK   23  A    between atoms: _50  and  _51
REMARK   24  A    between atoms: _50  and  _53
REMARK   25  A    between atoms: _53  and  _54
REMARK   26  A    between atoms: _57  and  _59
REMARK   27  A    between atoms: _59  and  _60
REMARK   28  A    between atoms: _63  and  _65
REMARK   29  A    between atoms: _65  and  _66
REMARK   30  A    between atoms: _69  and  _71
REMARK   31  A    between atoms: _71  and  _72
REMARK   32  A    between atoms: _71  and  _74
REMARK   33  A    between atoms: _74  and  _75
REMARK   34  A    between atoms: _75  and  _76
REMARK   35  A    between atoms: _76  and  _77
REMARK   36  A    between atoms: _77  and  _78
REMARK   37  A    between atoms: _82  and  _84
REMARK   38  A    between atoms: _84  and  _85
REMARK   39  A    between atoms: _84  and  _87
REMARK   40  A    between atoms: _87  and  _88
REMARK   41  A    between atoms: _91  and  _93
REMARK   42  A    between atoms: _93  and  _94
REMARK   43  A    between atoms: _93  and  _96
REMARK   44  A    between atoms: _96  and  _97
REMARK   45  A    between atoms: _99  and  _101
REMARK   46  A    between atoms: _101  and  _102
REMARK   47  A    between atoms: _101  and  _104
REMARK   48  A    between atoms: _104  and  _105
REMARK   49  A    between atoms: _105  and  _106
REMARK   50  A    between atoms: _111  and  _113
REMARK   51  A    between atoms: _113  and  _114
REMARK   52  A    between atoms: _113  and  _116
REMARK   53  A    between atoms: _116  and  _117
REMARK   54  A    between atoms: _120  and  _122
REMARK   55  A    between atoms: _122  and  _123
REMARK   56  A    between atoms: _122  and  _125
REMARK   57  A    between atoms: _125  and  _126
REMARK   58  A    between atoms: _126  and  _127
REMARK   59  A    between atoms: _127  and  _128
REMARK   60  A    between atoms: _128  and  _129
REMARK   61  A    between atoms: _133  and  _135
REMARK   62  A    between atoms: _135  and  _136
REMARK   63  A    between atoms: _138  and  _140
REMARK   64  A    between atoms: _140  and  _141
REMARK   65  A    between atoms: _140  and  _143
REMARK   66  A    between atoms: _143  and  _144
REMARK   67  A    between atoms: _144  and  _145
REMARK   68  A    between atoms: _145  and  _146
REMARK   69  A    between atoms: _155  and  _157
REMARK   70  A    between atoms: _157  and  _158
REMARK   71  A    between atoms: _160  and  _162
REMARK   72  A    between atoms: _162  and  _163
REMARK   73  A    between atoms: _162  and  _165
REMARK   74  A    between atoms: _165  and  _166
REMARK   75  A    between atoms: _166  and  _167
REMARK   76  A    between atoms: _167  and  _168
REMARK   77  A    between atoms: _177  and  _179
REMARK   78  A    between atoms: _179  and  _180
REMARK   79  A    between atoms: _179  and  _182
REMARK   80  A    between atoms: _182  and  _183
REMARK   81  A    between atoms: _189  and  _191
REMARK   82  A    between atoms: _191  and  _192
REMARK   83  A    between atoms: _191  and  _194
REMARK   84  A    between atoms: _194  and  _195
REMARK   85  A    between atoms: _200  and  _202
REMARK   86  A    between atoms: _202  and  _203
REMARK   87  A    between atoms: _202  and  _205
REMARK   88  A    between atoms: _205  and  _206
REMARK   89  A    between atoms: _206  and  _207
REMARK   90  A    between atoms: _207  and  _208
REMARK   91  A    between atoms: _217  and  _219
REMARK   92  A    between atoms: _219  and  _220
REMARK   93  A    between atoms: _219  and  _222
REMARK   94  A    between atoms: _222  and  _223
REMARK   95  A    between atoms: _228  and  _230
REMARK   96  A    between atoms: _230  and  _231
REMARK   97  A    between atoms: _230  and  _233
REMARK   98  A    between atoms: _233  and  _234
REMARK   99  A    between atoms: _244  and  _246
REMARK  100  A    between atoms: _246  and  _247
REMARK  101  A    between atoms: _246  and  _249
REMARK  102  A    between atoms: _249  and  _250
REMARK  103  A    between atoms: _252  and  _254
REMARK  104  A    between atoms: _254  and  _255
REMARK  105  A    between atoms: _254  and  _257
REMARK  106  A    between atoms: _257  and  _258
REMARK  107  A    between atoms: _260  and  _262
REMARK  108  A    between atoms: _262  and  _263
REMARK  109  A    between atoms: _262  and  _265
REMARK  110  A    between atoms: _265  and  _266
REMARK  111  A    between atoms: _268  and  _270
REMARK  112  A    between atoms: _270  and  _271
REMARK  113  A    between atoms: _273  and  _275
REMARK  114  A    between atoms: _275  and  _276
REMARK  115  A    between atoms: _275  and  _278
REMARK  116  A    between atoms: _278  and  _279
REMARK  117  A    between atoms: _282  and  _284
REMARK  118  A    between atoms: _284  and  _285
REMARK  119  A    between atoms: _284  and  _287
REMARK  120  A    between atoms: _287  and  _288
REMARK  121  A    between atoms: _298  and  _300
REMARK  122  A    between atoms: _300  and  _301
REMARK  123  A    between atoms: _300  and  _303
REMARK  124  A    between atoms: _303  and  _304
REMARK  125  A    between atoms: _304  and  _305
REMARK  126  A    between atoms: _307  and  _309
REMARK  127  A    between atoms: _309  and  _310
REMARK  128  A    between atoms: _309  and  _312
REMARK  129  A    between atoms: _312  and  _313
REMARK  130  A    between atoms: _315  and  _317
REMARK  131  A    between atoms: _317  and  _318
REMARK  132  A    between atoms: _317  and  _320
REMARK  133  A    between atoms: _323  and  _325
REMARK  134  A    between atoms: _325  and  _326
REMARK  135  A    between atoms: _325  and  _328
REMARK  136  A    between atoms: _328  and  _329
REMARK  137  A    between atoms: _329  and  _330
REMARK  138  A    between atoms: _330  and  _331
REMARK  139  A    between atoms: _331  and  _332
REMARK  140  A    between atoms: _336  and  _338
REMARK  141  A    between atoms: _338  and  _339
REMARK  142  A    between atoms: _338  and  _341
REMARK  143  A    between atoms: _341  and  _342
REMARK  144  A    between atoms: _347  and  _349
REMARK  145  A    between atoms: _349  and  _350
REMARK  146  A    between atoms: _349  and  _352
REMARK  147  A    between atoms: _352  and  _353
REMARK  148  A    between atoms: _356  and  _358
REMARK  149  A    between atoms: _358  and  _359
REMARK  150  A    between atoms: _358  and  _361
REMARK  151  A    between atoms: _361  and  _362
REMARK  152  A    between atoms: _365  and  _367
REMARK  153  A    between atoms: _367  and  _368
REMARK  154  A    between atoms: _367  and  _370
REMARK  155  A    between atoms: _370  and  _371
REMARK  156  A    between atoms: _376  and  _377
REMARK  157  A    between atoms: _379  and  _381
REMARK  158  A    between atoms: _381  and  _382
REMARK  159  A    between atoms: _384  and  _386
REMARK  160  A    between atoms: _386  and  _387
REMARK  161  A    between atoms: _386  and  _389
REMARK  162  A    between atoms: _389  and  _390
REMARK  163  A    between atoms: _390  and  _391
REMARK  164  A    between atoms: _391  and  _392
REMARK  165  A    between atoms: _392  and  _393
REMARK  166  A    between atoms: _397  and  _399
REMARK  167  A    between atoms: _399  and  _400
REMARK  168  A    between atoms: _399  and  _402
REMARK  169  A    between atoms: _405  and  _407
REMARK  170  A    between atoms: _407  and  _408
REMARK  171  A    between atoms: _407  and  _410
REMARK  172  A    between atoms: _412  and  _414
REMARK  173  A    between atoms: _414  and  _415
REMARK  174  A    between atoms: _417  and  _419
REMARK  175  A    between atoms: _419  and  _420
REMARK  176  A    between atoms: _419  and  _422
REMARK  177  A    between atoms: _422  and  _423
REMARK  178  A    between atoms: _429  and  _431
REMARK  179  A    between atoms: _431  and  _432
REMARK  180  A    between atoms: _431  and  _434
REMARK  181  A    between atoms: _434  and  _435
REMARK  182  A    between atoms: _438  and  _440
REMARK  183  A    between atoms: _440  and  _441
REMARK  184  A    between atoms: _440  and  _443
REMARK  185  A    between atoms: _443  and  _444
REMARK  186  A    between atoms: _447  and  _449
REMARK  187  A    between atoms: _449  and  _450
REMARK  188  A    between atoms: _449  and  _452
REMARK  189  A    between atoms: _452  and  _453
REMARK  190  A    between atoms: _453  and  _454
REMARK  191  A    between atoms: _457  and  _459
REMARK  192  A    between atoms: _459  and  _460
REMARK  193  A    between atoms: _459  and  _462
REMARK  194  A    between atoms: _462  and  _463
REMARK  195  A    between atoms: _466  and  _468
REMARK  196  A    between atoms: _468  and  _469
REMARK  197  A    between atoms: _468  and  _471
REMARK  198  A    between atoms: _473  and  _475
REMARK  199  A    between atoms: _475  and  _476
REMARK  200  A    between atoms: _478  and  _480
REMARK  201  A    between atoms: _480  and  _481
REMARK  202  A    between atoms: _480  and  _483
REMARK  203  A    between atoms: _483  and  _484
REMARK  204  A    between atoms: _487  and  _489
REMARK  205  A    between atoms: _489  and  _490
REMARK  206  A    between atoms: _492  and  _494
REMARK  207  A    between atoms: _494  and  _495
REMARK  208  A    between atoms: _494  and  _497
REMARK  209  A    between atoms: _497  and  _498
REMARK  210  A    between atoms: _501  and  _503
REMARK  211  A    between atoms: _503  and  _504
REMARK  212  A    between atoms: _503  and  _506
REMARK  213  A    between atoms: _506  and  _507
REMARK  214  A    between atoms: _512  and  _514
REMARK  215  A    between atoms: _514  and  _515
REMARK  216  A    between atoms: _514  and  _517
REMARK  217  A    between atoms: _517  and  _518
REMARK  218  A    between atoms: _521  and  _523
REMARK  219  A    between atoms: _523  and  _524
REMARK  220  A    between atoms: _523  and  _526
REMARK  221  A    between atoms: _526  and  _527
REMARK  222  A    between atoms: _527  and  _528
REMARK  223  A    between atoms: _533  and  _535
REMARK  224  A    between atoms: _535  and  _536
REMARK  225  A    between atoms: _535  and  _538
REMARK  226  A    between atoms: _538  and  _539
REMARK  227  A    between atoms: _545  and  _547
REMARK  228  A    between atoms: _547  and  _548
REMARK  229  A    between atoms: _547  and  _550
REMARK  230  A    between atoms: _550  and  _551
REMARK  231  A    between atoms: _554  and  _556
REMARK  232  A    between atoms: _556  and  _557
REMARK  233  A    between atoms: _556  and  _559
REMARK  234  A    between atoms: _559  and  _560
REMARK  235  A    between atoms: _562  and  _564
REMARK  236  A    between atoms: _564  and  _565
REMARK  237  A    between atoms: _564  and  _567
REMARK  238  A    between atoms: _567  and  _568
REMARK  239  A    between atoms: _571  and  _573
REMARK  240  A    between atoms: _573  and  _574
REMARK  241  A    between atoms: _573  and  _576
REMARK  242  A    between atoms: _576  and  _577
REMARK  243  A    between atoms: _577  and  _578
REMARK  244  A    between atoms: _578  and  _579
REMARK  245  A    between atoms: _588  and  _590
REMARK  246  A    between atoms: _590  and  _591
REMARK  247  A    between atoms: _590  and  _593
REMARK  248  A    between atoms: _593  and  _594
REMARK  249  A    between atoms: _594  and  _595
REMARK  250  A    between atoms: _595  and  _596
REMARK  251  A    between atoms: _605  and  _607
REMARK  252  A    between atoms: _607  and  _608
REMARK  253  A    between atoms: _611  and  _613
REMARK  254  A    between atoms: _613  and  _614
REMARK  255  A    between atoms: _613  and  _616
REMARK  256  A    between atoms: _616  and  _617
REMARK  257  A    between atoms: _620  and  _622
REMARK  258  A    between atoms: _622  and  _623
REMARK  259  A    between atoms: _622  and  _625
REMARK  260  A    between atoms: _625  and  _626
REMARK  261  A    between atoms: _628  and  _630
REMARK  262  A    between atoms: _630  and  _631
REMARK  263  A    between atoms: _630  and  _633
REMARK  264  A    between atoms: _633  and  _634
REMARK  265  A    between atoms: _637  and  _639
REMARK  266  A    between atoms: _639  and  _640
REMARK  267  A    between atoms: _639  and  _642
REMARK  268  A    between atoms: _642  and  _643
REMARK  269  A    between atoms: _646  and  _648
REMARK  270  A    between atoms: _648  and  _649
REMARK  271  A    between atoms: _648  and  _651
REMARK  272  A    between atoms: _651  and  _652
REMARK  273  A    between atoms: _655  and  _657
REMARK  274  A    between atoms: _657  and  _658
REMARK  275  A    between atoms: _657  and  _660
REMARK  276  A    between atoms: _660  and  _661
REMARK                            x       y       z     vdW  Elec       q    Type
REMARK                         _______ _______ _______ _____ _____    ______ ____
ROOT
ATOM      1  CA  ILE A   1      39.868  11.903  30.007  0.00  0.00    +0.133 C 
ENDROOT
BRANCH   1   2
ATOM      2  N   ILE A   1      39.103  11.561  28.774  0.00  0.00    -0.239 NA
ATOM      3  H   ILE A   1      39.546  11.752  27.853  0.00  0.00    +0.142 HD
ENDBRANCH   1   2
BRANCH   1   4
ATOM      4  CB  ILE A   1      41.046  10.986  30.128  0.00  0.00    +0.023 C 
ATOM      5  CG2 ILE A   1      41.965  11.435  31.244  0.00  0.00    +0.002 C 
BRANCH   4   6
ATOM      6  CG1 ILE A   1      40.500   9.541  30.246  0.00  0.00    +0.002 C 
ATOM      7  CD1 ILE A   1      41.465   8.482  30.670  0.00  0.00    +0.000 C 
ENDBRANCH   4   6
ENDBRANCH   1   4
BRANCH   1   8
ATOM      8  C   ILE A   1      40.326  13.349  29.865  0.00  0.00    +0.224 C 
ATOM      9  O   ILE A   1      40.778  13.735  28.792  0.00  0.00    -0.287 OA
ENDBRANCH   1   8
TORSDOF 4
REMARK  Name = ../refined-set-2016/4dq2/4dq2_pocket.pdb
REMARK  276 active torsions:
REMARK  status: ('A' for Active; 'I' for Inactive)
REMARK    1  A    between atoms: _1  and  _3
REMARK    2  A    between atoms: _3  and  _4
REMARK    3  A    between atoms: _3  and  _6
REMARK    4  A    between atoms: _6  and  _7
REMARK    5  A    between atoms: _10  and  _12
REMARK    6  A    between atoms: _12  and  _13
REMARK    7  A    between atoms: _12  and  _15
REMARK    8  A    between atoms: _15  and  _16
REMARK    9  A    between atoms: _19  and  _21
REMARK   10  A    between atoms: _21  and  _22
REMARK   11  A    between atoms: _21  and  _24
REMARK   12  A    between atoms: _24  and  _25
REMARK   13  A    between atoms: _27  and  _29
REMARK   14  A    between atoms: _29  and  _30
REMARK   15  A    between atoms: _29  and  _32
REMARK   16  A    between atoms: _32  and  _33
REMARK   17  A    between atoms: _36  and  _38
REMARK   18  A    between atoms: _38  and  _39
REMARK   19  A    between atoms: _38  and  _41
REMARK   20  A    between atoms: _41  and  _42
REMARK   21  A    between atoms: _42  and  _43
REMARK   22  A    between atoms: _48  and  _50
REMARK   23  A    between atoms: _50  and  _51
REMARK   24  A    between atoms: _50  and  _53
REMARK   25  A    between atoms: _53  and  _54
REMARK   26  A    between atoms: _57  and  _59
REMARK   27  A    between atoms: _59  and  _60
REMARK   28  A    between atoms: _63  and  _65
REMARK   29  A    between atoms: _65  and  _66
REMARK   30  A    between atoms: _69  and  _71
REMARK   31  A    between atoms: _71  and  _72
REMARK   32  A    between atoms: _71  and  _74
REMARK   33  A    between atoms: _74  and  _75
REMARK   34  A    between atoms: _75  and  _76
REMARK   35  A    between atoms: _76  and  _77
REMARK   36  A    between atoms: _77  and  _78
REMARK   37  A    between atoms: _82  and  _84
REMARK   38  A    between atoms: _84  and  _85
REMARK   39  A    between atoms: _84  and  _87
REMARK   40  A    between atoms: _87  and  _88
REMARK   41  A    between atoms: _91  and  _93
REMARK   42  A    between atoms: _93  and  _94
REMARK   43  A    between atoms: _93  and  _96
REMARK   44  A    between atoms: _96  and  _97
REMARK   45  A    between atoms: _99  and  _101
REMARK   46  A    between atoms: _101  and  _102
REMARK   47  A    between atoms: _101  and  _104
REMARK   48  A    between atoms: _104  and  _105
REMARK   49  A    between atoms: _105  and  _106
REMARK   50  A    between atoms: _111  and  _113
REMARK   51  A    between atoms: _113  and  _114
REMARK   52  A    between atoms: _113  and  _116
REMARK   53  A    between atoms: _116  and  _117
REMARK   54  A    between atoms: _120  and  _122
REMARK   55  A    between atoms: _122  and  _123
REMARK   56  A    between atoms: _122  and  _125
REMARK   57  A    between atoms: _125  and  _126
REMARK   58  A    between atoms: _126  and  _127
REMARK   59  A    between atoms: _127  and  _128
REMARK   60  A    between atoms: _128  and  _129
REMARK   61  A    between atoms: _133  and  _135
REMARK   62  A    between atoms: _135  and  _136
REMARK   63  A    between atoms: _138  and  _140
REMARK   64  A    between atoms: _140  and  _141
REMARK   65  A    between atoms: _140  and  _143
REMARK   66  A    between atoms: _143  and  _144
REMARK   67  A    between atoms: _144  and  _145
REMARK   68  A    between atoms: _145  and  _146
REMARK   69  A    between atoms: _155  and  _157
REMARK   70  A    between atoms: _157  and  _158
REMARK   71  A    between atoms: _160  and  _162
REMARK   72  A    between atoms: _162  and  _163
REMARK   73  A    between atoms: _162  and  _165
REMARK   74  A    between atoms: _165  and  _166
REMARK   75  A    between atoms: _166  and  _167
REMARK   76  A    between atoms: _167  and  _168
REMARK   77  A    between atoms: _177  and  _179
REMARK   78  A    between atoms: _179  and  _180
REMARK   79  A    between atoms: _179  and  _182
REMARK   80  A    between atoms: _182  and  _183
REMARK   81  A    between atoms: _189  and  _191
REMARK   82  A    between atoms: _191  and  _192
REMARK   83  A    between atoms: _191  and  _194
REMARK   84  A    between atoms: _194  and  _195
REMARK   85  A    between atoms: _200  and  _202
REMARK   86  A    between atoms: _202  and  _203
REMARK   87  A    between atoms: _202  and  _205
REMARK   88  A    between atoms: _205  and  _206
REMARK   89  A    between atoms: _206  and  _207
REMARK   90  A    between atoms: _207  and  _208
REMARK   91  A    between atoms: _217  and  _219
REMARK   92  A    between atoms: _219  and  _220
REMARK   93  A    between atoms: _219  and  _222
REMARK   94  A    between atoms: _222  and  _223
REMARK   95  A    between atoms: _228  and  _230
REMARK   96  A    between atoms: _230  and  _231
REMARK   97  A    between atoms: _230  and  _233
REMARK   98  A    between atoms: _233  and  _234
REMARK   99  A    between atoms: _244  and  _246
REMARK  100  A    between atoms: _246  and  _247
REMARK  101  A    between atoms: _246  and  _249
REMARK  102  A    between atoms: _249  and  _250
REMARK  103  A    between atoms: _252  and  _254
REMARK  104  A    between atoms: _254  and  _255
REMARK  105  A    between atoms: _254  and  _257
REMARK  106  A    between atoms: _257  and  _258
REMARK  107  A    between atoms: _260  and  _262
REMARK  108  A    between atoms: _262  and  _263
REMARK  109  A    between atoms: _262  and  _265
REMARK  110  A    between atoms: _265  and  _266
REMARK  111  A    between atoms: _268  and  _270
REMARK  112  A    between atoms: _270  and  _271
REMARK  113  A    between atoms: _273  and  _275
REMARK  114  A    between atoms: _275  and  _276
REMARK  115  A    between atoms: _275  and  _278
REMARK  116  A    between atoms: _278  and  _279
REMARK  117  A    between atoms: _282  and  _284
REMARK  118  A    between atoms: _284  and  _285
REMARK  119  A    between atoms: _284  and  _287
REMARK  120  A    between atoms: _287  and  _288
REMARK  121  A    between atoms: _298  and  _300
REMARK  122  A    between atoms: _300  and  _301
REMARK  123  A    between atoms: _300  and  _303
REMARK  124  A    between atoms: _303  and  _304
REMARK  125  A    between atoms: _304  and  _305
REMARK  126  A    between atoms: _307  and  _309
REMARK  127  A    between atoms: _309  and  _310
REMARK  128  A    between atoms: _309  and  _312
REMARK  129  A    between atoms: _312  and  _313
REMARK  130  A    between atoms: _315  and  _317
REMARK  131  A    between atoms: _317  and  _318
REMARK  132  A    between atoms: _317  and  _320
REMARK  133  A    between atoms: _323  and  _325
REMARK  134  A    between atoms: _325  and  _326
REMARK  135  A    between atoms: _325  and  _328
REMARK  136  A    between atoms: _328  and  _329
REMARK  137  A    between atoms: _329  and  _330
REMARK  138  A    between atoms: _330  and  _331
REMARK  139  A    between atoms: _331  and  _332
REMARK  140  A    between atoms: _336  and  _338
REMARK  141  A    between atoms: _338  and  _339
REMARK  142  A    between atoms: _338  and  _341
REMARK  143  A    between atoms: _341  and  _342
REMARK  144  A    between atoms: _347  and  _349
REMARK  145  A    between atoms: _349  and  _350
REMARK  146  A    between atoms: _349  and  _352
REMARK  147  A    between atoms: _352  and  _353
REMARK  148  A    between atoms: _356  and  _358
REMARK  149  A    between atoms: _358  and  _359
REMARK  150  A    between atoms: _358  and  _361
REMARK  151  A    between atoms: _361  and  _362
REMARK  152  A    between atoms: _365  and  _367
REMARK  153  A    between atoms: _367  and  _368
REMARK  154  A    between atoms: _367  and  _370
REMARK  155  A    between atoms: _370  and  _371
REMARK  156  A    between atoms: _376  and  _377
REMARK  157  A    between atoms: _379  and  _381
REMARK  158  A    between atoms: _381  and  _382
REMARK  159  A    between atoms: _384  and  _386
REMARK  160  A    between atoms: _386  and  _387
REMARK  161  A    between atoms: _386  and  _389
REMARK  162  A    between atoms: _389  and  _390
REMARK  163  A    between atoms: _390  and  _391
REMARK  164  A    between atoms: _391  and  _392
REMARK  165  A    between atoms: _392  and  _393
REMARK  166  A    between atoms: _397  and  _399
REMARK  167  A    between atoms: _399  and  _400
REMARK  168  A    between atoms: _399  and  _402
REMARK  169  A    between atoms: _405  and  _407
REMARK  170  A    between atoms: _407  and  _408
REMARK  171  A    between atoms: _407  and  _410
REMARK  172  A    between atoms: _412  and  _414
REMARK  173  A    between atoms: _414  and  _415
REMARK  174  A    between atoms: _417  and  _419
REMARK  175  A    between atoms: _419  and  _420
REMARK  176  A    between atoms: _419  and  _422
REMARK  177  A    between atoms: _422  and  _423
REMARK  178  A    between atoms: _429  and  _431
REMARK  179  A    between atoms: _431  and  _432
REMARK  180  A    between atoms: _431  and  _434
REMARK  181  A    between atoms: _434  and  _435
REMARK  182  A    between atoms: _438  and  _440
REMARK  183  A    between atoms: _440  and  _441
REMARK  184  A    between atoms: _440  and  _443
REMARK  185  A    between atoms: _443  and  _444
REMARK  186  A    between atoms: _447  and  _449
REMARK  187  A    between atoms: _449  and  _450
REMARK  188  A    between atoms: _449  and  _452
REMARK  189  A    between atoms: _452  and  _453
REMARK  190  A    between atoms: _453  and  _454
REMARK  191  A    between atoms: _457  and  _459
REMARK  192  A    between atoms: _459  and  _460
REMARK  193  A    between atoms: _459  and  _462
REMARK  194  A    between atoms: _462  and  _463
REMARK  195  A    between atoms: _466  and  _468
REMARK  196  A    between atoms: _468  and  _469
REMARK  197  A    between atoms: _468  and  _471
REMARK  198  A    between atoms: _473  and  _475
REMARK  199  A    between atoms: _475  and  _476
REMARK  200  A    between atoms: _478  and  _480
REMARK  201  A    between atoms: _480  and  _481
REMARK  202  A    between atoms: _480  and  _483
REMARK  203  A    between atoms: _483  and  _484
REMARK  204  A    between atoms: _487  and  _489
REMARK  205  A    between atoms: _489  and  _490
REMARK  206  A    between atoms: _492  and  _494
REMARK  207  A    between atoms: _494  and  _495
REMARK  208  A    between atoms: _494  and  _497
REMARK  209  A    between atoms: _497  and  _498
REMARK  210  A    between atoms: _501  and  _503
REMARK  211  A    between atoms: _503  and  _504
REMARK  212  A    between atoms: _503  and  _506
REMARK  213  A    between atoms: _506  and  _507
REMARK  214  A    between atoms: _512  and  _514
REMARK  215  A    between atoms: _514  and  _515
REMARK  216  A    between atoms: _514  and  _517
REMARK  217  A    between atoms: _517  and  _518
REMARK  218  A    between atoms: _521  and  _523
REMARK  219  A    between atoms: _523  and  _524
REMARK  220  A    between atoms: _523  and  _526
REMARK  221  A    between atoms: _526  and  _527
REMARK  222  A    between atoms: _527  and  _528
REMARK  223  A    between atoms: _533  and  _535
REMARK  224  A    between atoms: _535  and  _536
REMARK  225  A    between atoms: _535  and  _538
REMARK  226  A    between atoms: _538  and  _539
REMARK  227  A    between atoms: _545  and  _547
REMARK  228  A    between atoms: _547  and  _548
REMARK  229  A    between atoms: _547  and  _550
REMARK  230  A    between atoms: _550  and  _551
REMARK  231  A    between atoms: _554  and  _556
REMARK  232  A    between atoms: _556  and  _557
REMARK  233  A    between atoms: _556  and  _559
REMARK  234  A    between atoms: _559  and  _560
REMARK  235  A    between atoms: _562  and  _564
REMARK  236  A    between atoms: _564  and  _565
REMARK  237  A    between atoms: _564  and  _567
REMARK  238  A    between atoms: _567  and  _568
REMARK  239  A    between atoms: _571  and  _573
REMARK  240  A    between atoms: _573  and  _574
REMARK  241  A    between atoms: _573  and  _576
REMARK  242  A    between atoms: _576  and  _577
REMARK  243  A    between atoms: _577  and  _578
REMARK  244  A    between atoms: _578  and  _579
REMARK  245  A    between atoms: _588  and  _590
REMARK  246  A    between atoms: _590  and  _591
REMARK  247  A    between atoms: _590  and  _593
REMARK  248  A    between atoms: _593  and  _594
REMARK  249  A    between atoms: _594  and  _595
REMARK  250  A    between atoms: _595  and  _596
REMARK  251  A    between atoms: _605  and  _607
REMARK  252  A    between atoms: _607  and  _608
REMARK  253  A    between atoms: _611  and  _613
REMARK  254  A    between atoms: _613  and  _614
REMARK  255  A    between atoms: _613  and  _616
REMARK  256  A    between atoms: _616  and  _617
REMARK  257  A    between atoms: _620  and  _622
REMARK  258  A    between atoms: _622  and  _623
REMARK  259  A    between atoms: _622  and  _625
REMARK  260  A    between atoms: _625  and  _626
REMARK  261  A    between atoms: _628  and  _630
REMARK  262  A    between atoms: _630  and  _631
REMARK  263  A    between atoms: _630  and  _633
REMARK  264  A    between atoms: _633  and  _634
REMARK  265  A    between atoms: _637  and  _639
REMARK  266  A    between atoms: _639  and  _640
REMARK  267  A    between atoms: _639  and  _642
REMARK  268  A    between atoms: _642  and  _643
REMARK  269  A    between atoms: _646  and  _648
REMARK  270  A    between atoms: _648  and  _649
REMARK  271  A    between atoms: _648  and  _651
REMARK  272  A    between atoms: _651  and  _652
REMARK  273  A    between atoms: _655  and  _657
REMARK  274  A    between atoms: _657  and  _658
REMARK  275  A    between atoms: _657  and  _660
REMARK  276  A    between atoms: _660  and  _661
REMARK                            x       y       z     vdW  Elec       q    Type
REMARK                         _______ _______ _______ _____ _____    ______ ____
ROOT
ATOM      1  CA  SER A   1      43.283  16.977  33.129  0.00  0.00    +0.163 C 
ENDROOT
BRANCH   1   2
ATOM      2  N   SER A   1      42.379  16.669  32.035  0.00  0.00    -0.237 NA
ATOM      3  H   SER A   1      42.506  17.178  31.137  0.00  0.00    +0.142 HD
ENDBRANCH   1   2
BRANCH   1   4
ATOM      4  CB  SER A   1      43.649  18.432  33.026  0.00  0.00    +0.227 C 
ATOM      5  OG  SER A   1      43.847  18.939  31.901  0.00  0.00    -0.287 OA
ENDBRANCH   1   4
BRANCH   1   6
ATOM      6  C   SER A   1      44.542  16.129  33.120  0.00  0.00    +0.162 C 
BRANCH   6   7
ATOM      7  O   SER A   1      45.408  16.500  34.222  0.00  0.00    -0.380 OA
ATOM      8  H   SER A   1      45.660  17.454  34.136  0.00  0.00    +0.211 HD
ENDBRANCH   6   7
ENDBRANCH   1   6
TORSDOF 4
REMARK  Name = ../refined-set-2016/4dq2/4dq2_pocket.pdb
REMARK  276 active torsions:
REMARK  status: ('A' for Active; 'I' for Inactive)
REMARK    1  A    between atoms: _1  and  _3
REMARK    2  A    between atoms: _3  and  _4
REMARK    3  A    between atoms: _3  and  _6
REMARK    4  A    between atoms: _6  and  _7
REMARK    5  A    between atoms: _10  and  _12
REMARK    6  A    between atoms: _12  and  _13
REMARK    7  A    between atoms: _12  and  _15
REMARK    8  A    between atoms: _15  and  _16
REMARK    9  A    between atoms: _19  and  _21
REMARK   10  A    between atoms: _21  and  _22
REMARK   11  A    between atoms: _21  and  _24
REMARK   12  A    between atoms: _24  and  _25
REMARK   13  A    between atoms: _27  and  _29
REMARK   14  A    between atoms: _29  and  _30
REMARK   15  A    between atoms: _29  and  _32
REMARK   16  A    between atoms: _32  and  _33
REMARK   17  A    between atoms: _36  and  _38
REMARK   18  A    between atoms: _38  and  _39
REMARK   19  A    between atoms: _38  and  _41
REMARK   20  A    between atoms: _41  and  _42
REMARK   21  A    between atoms: _42  and  _43
REMARK   22  A    between atoms: _48  and  _50
REMARK   23  A    between atoms: _50  and  _51
REMARK   24  A    between atoms: _50  and  _53
REMARK   25  A    between atoms: _53  and  _54
REMARK   26  A    between atoms: _57  and  _59
REMARK   27  A    between atoms: _59  and  _60
REMARK   28  A    between atoms: _63  and  _65
REMARK   29  A    between atoms: _65  and  _66
REMARK   30  A    between atoms: _69  and  _71
REMARK   31  A    between atoms: _71  and  _72
REMARK   32  A    between atoms: _71  and  _74
REMARK   33  A    between atoms: _74  and  _75
REMARK   34  A    between atoms: _75  and  _76
REMARK   35  A    between atoms: _76  and  _77
REMARK   36  A    between atoms: _77  and  _78
REMARK   37  A    between atoms: _82  and  _84
REMARK   38  A    between atoms: _84  and  _85
REMARK   39  A    between atoms: _84  and  _87
REMARK   40  A    between atoms: _87  and  _88
REMARK   41  A    between atoms: _91  and  _93
REMARK   42  A    between atoms: _93  and  _94
REMARK   43  A    between atoms: _93  and  _96
REMARK   44  A    between atoms: _96  and  _97
REMARK   45  A    between atoms: _99  and  _101
REMARK   46  A    between atoms: _101  and  _102
REMARK   47  A    between atoms: _101  and  _104
REMARK   48  A    between atoms: _104  and  _105
REMARK   49  A    between atoms: _105  and  _106
REMARK   50  A    between atoms: _111  and  _113
REMARK   51  A    between atoms: _113  and  _114
REMARK   52  A    between atoms: _113  and  _116
REMARK   53  A    between atoms: _116  and  _117
REMARK   54  A    between atoms: _120  and  _122
REMARK   55  A    between atoms: _122  and  _123
REMARK   56  A    between atoms: _122  and  _125
REMARK   57  A    between atoms: _125  and  _126
REMARK   58  A    between atoms: _126  and  _127
REMARK   59  A    between atoms: _127  and  _128
REMARK   60  A    between atoms: _128  and  _129
REMARK   61  A    between atoms: _133  and  _135
REMARK   62  A    between atoms: _135  and  _136
REMARK   63  A    between atoms: _138  and  _140
REMARK   64  A    between atoms: _140  and  _141
REMARK   65  A    between atoms: _140  and  _143
REMARK   66  A    between atoms: _143  and  _144
REMARK   67  A    between atoms: _144  and  _145
REMARK   68  A    between atoms: _145  and  _146
REMARK   69  A    between atoms: _155  and  _157
REMARK   70  A    between atoms: _157  and  _158
REMARK   71  A    between atoms: _160  and  _162
REMARK   72  A    between atoms: _162  and  _163
REMARK   73  A    between atoms: _162  and  _165
REMARK   74  A    between atoms: _165  and  _166
REMARK   75  A    between atoms: _166  and  _167
REMARK   76  A    between atoms: _167  and  _168
REMARK   77  A    between atoms: _177  and  _179
REMARK   78  A    between atoms: _179  and  _180
REMARK   79  A    between atoms: _179  and  _182
REMARK   80  A    between atoms: _182  and  _183
REMARK   81  A    between atoms: _189  and  _191
REMARK   82  A    between atoms: _191  and  _192
REMARK   83  A    between atoms: _191  and  _194
REMARK   84  A    between atoms: _194  and  _195
REMARK   85  A    between atoms: _200  and  _202
REMARK   86  A    between atoms: _202  and  _203
REMARK   87  A    between atoms: _202  and  _205
REMARK   88  A    between atoms: _205  and  _206
REMARK   89  A    between atoms: _206  and  _207
REMARK   90  A    between atoms: _207  and  _208
REMARK   91  A    between atoms: _217  and  _219
REMARK   92  A    between atoms: _219  and  _220
REMARK   93  A    between atoms: _219  and  _222
REMARK   94  A    between atoms: _222  and  _223
REMARK   95  A    between atoms: _228  and  _230
REMARK   96  A    between atoms: _230  and  _231
REMARK   97  A    between atoms: _230  and  _233
REMARK   98  A    between atoms: _233  and  _234
REMARK   99  A    between atoms: _244  and  _246
REMARK  100  A    between atoms: _246  and  _247
REMARK  101  A    between atoms: _246  and  _249
REMARK  102  A    between atoms: _249  and  _250
REMARK  103  A    between atoms: _252  and  _254
REMARK  104  A    between atoms: _254  and  _255
REMARK  105  A    between atoms: _254  and  _257
REMARK  106  A    between atoms: _257  and  _258
REMARK  107  A    between atoms: _260  and  _262
REMARK  108  A    between atoms: _262  and  _263
REMARK  109  A    between atoms: _262  and  _265
REMARK  110  A    between atoms: _265  and  _266
REMARK  111  A    between atoms: _268  and  _270
REMARK  112  A    between atoms: _270  and  _271
REMARK  113  A    between atoms: _273  and  _275
REMARK  114  A    between atoms: _275  and  _276
REMARK  115  A    between atoms: _275  and  _278
REMARK  116  A    between atoms: _278  and  _279
REMARK  117  A    between atoms: _282  and  _284
REMARK  118  A    between atoms: _284  and  _285
REMARK  119  A    between atoms: _284  and  _287
REMARK  120  A    between atoms: _287  and  _288
REMARK  121  A    between atoms: _298  and  _300
REMARK  122  A    between atoms: _300  and  _301
REMARK  123  A    between atoms: _300  and  _303
REMARK  124  A    between atoms: _303  and  _304
REMARK  125  A    between atoms: _304  and  _305
REMARK  126  A    between atoms: _307  and  _309
REMARK  127  A    between atoms: _309  and  _310
REMARK  128  A    between atoms: _309  and  _312
REMARK  129  A    between atoms: _312  and  _313
REMARK  130  A    between atoms: _315  and  _317
REMARK  131  A    between atoms: _317  and  _318
REMARK  132  A    between atoms: _317  and  _320
REMARK  133  A    between atoms: _323  and  _325
REMARK  134  A    between atoms: _325  and  _326
REMARK  135  A    between atoms: _325  and  _328
REMARK  136  A    between atoms: _328  and  _329
REMARK  137  A    between atoms: _329  and  _330
REMARK  138  A    between atoms: _330  and  _331
REMARK  139  A    between atoms: _331  and  _332
REMARK  140  A    between atoms: _336  and  _338
REMARK  141  A    between atoms: _338  and  _339
REMARK  142  A    between atoms: _338  and  _341
REMARK  143  A    between atoms: _341  and  _342
REMARK  144  A    between atoms: _347  and  _349
REMARK  145  A    between atoms: _349  and  _350
REMARK  146  A    between atoms: _349  and  _352
REMARK  147  A    between atoms: _352  and  _353
REMARK  148  A    between atoms: _356  and  _358
REMARK  149  A    between atoms: _358  and  _359
REMARK  150  A    between atoms: _358  and  _361
REMARK  151  A    between atoms: _361  and  _362
REMARK  152  A    between atoms: _365  and  _367
REMARK  153  A    between atoms: _367  and  _368
REMARK  154  A    between atoms: _367  and  _370
REMARK  155  A    between atoms: _370  and  _371
REMARK  156  A    between atoms: _376  and  _377
REMARK  157  A    between atoms: _379  and  _381
REMARK  158  A    between atoms: _381  and  _382
REMARK  159  A    between atoms: _384  and  _386
REMARK  160  A    between atoms: _386  and  _387
REMARK  161  A    between atoms: _386  and  _389
REMARK  162  A    between atoms: _389  and  _390
REMARK  163  A    between atoms: _390  and  _391
REMARK  164  A    between atoms: _391  and  _392
REMARK  165  A    between atoms: _392  and  _393
REMARK  166  A    between atoms: _397  and  _399
REMARK  167  A    between atoms: _399  and  _400
REMARK  168  A    between atoms: _399  and  _402
REMARK  169  A    between atoms: _405  and  _407
REMARK  170  A    between atoms: _407  and  _408
REMARK  171  A    between atoms: _407  and  _410
REMARK  172  A    between atoms: _412  and  _414
REMARK  173  A    between atoms: _414  and  _415
REMARK  174  A    between atoms: _417  and  _419
REMARK  175  A    between atoms: _419  and  _420
REMARK  176  A    between atoms: _419  and  _422
REMARK  177  A    between atoms: _422  and  _423
REMARK  178  A    between atoms: _429  and  _431
REMARK  179  A    between atoms: _431  and  _432
REMARK  180  A    between atoms: _431  and  _434
REMARK  181  A    between atoms: _434  and  _435
REMARK  182  A    between atoms: _438  and  _440
REMARK  183  A    between atoms: _440  and  _441
REMARK  184  A    between atoms: _440  and  _443
REMARK  185  A    between atoms: _443  and  _444
REMARK  186  A    between atoms: _447  and  _449
REMARK  187  A    between atoms: _449  and  _450
REMARK  188  A    between atoms: _449  and  _452
REMARK  189  A    between atoms: _452  and  _453
REMARK  190  A    between atoms: _453  and  _454
REMARK  191  A    between atoms: _457  and  _459
REMARK  192  A    between atoms: _459  and  _460
REMARK  193  A    between atoms: _459  and  _462
REMARK  194  A    between atoms: _462  and  _463
REMARK  195  A    between atoms: _466  and  _468
REMARK  196  A    between atoms: _468  and  _469
REMARK  197  A    between atoms: _468  and  _471
REMARK  198  A    between atoms: _473  and  _475
REMARK  199  A    between atoms: _475  and  _476
REMARK  200  A    between atoms: _478  and  _480
REMARK  201  A    between atoms: _480  and  _481
REMARK  202  A    between atoms: _480  and  _483
REMARK  203  A    between atoms: _483  and  _484
REMARK  204  A    between atoms: _487  and  _489
REMARK  205  A    between atoms: _489  and  _490
REMARK  206  A    between atoms: _492  and  _494
REMARK  207  A    between atoms: _494  and  _495
REMARK  208  A    between atoms: _494  and  _497
REMARK  209  A    between atoms: _497  and  _498
REMARK  210  A    between atoms: _501  and  _503
REMARK  211  A    between atoms: _503  and  _504
REMARK  212  A    between atoms: _503  and  _506
REMARK  213  A    between atoms: _506  and  _507
REMARK  214  A    between atoms: _512  and  _514
REMARK  215  A    between atoms: _514  and  _515
REMARK  216  A    between atoms: _514  and  _517
REMARK  217  A    between atoms: _517  and  _518
REMARK  218  A    between atoms: _521  and  _523
REMARK  219  A    between atoms: _523  and  _524
REMARK  220  A    between atoms: _523  and  _526
REMARK  221  A    between atoms: _526  and  _527
REMARK  222  A    between atoms: _527  and  _528
REMARK  223  A    between atoms: _533  and  _535
REMARK  224  A    between atoms: _535  and  _536
REMARK  225  A    between atoms: _535  and  _538
REMARK  226  A    between atoms: _538  and  _539
REMARK  227  A    between atoms: _545  and  _547
REMARK  228  A    between atoms: _547  and  _548
REMARK  229  A    between atoms: _547  and  _550
REMARK  230  A    between atoms: _550  and  _551
REMARK  231  A    between atoms: _554  and  _556
REMARK  232  A    between atoms: _556  and  _557
REMARK  233  A    between atoms: _556  and  _559
REMARK  234  A    between atoms: _559  and  _560
REMARK  235  A    between atoms: _562  and  _564
REMARK  236  A    between atoms: _564  and  _565
REMARK  237  A    between atoms: _564  and  _567
REMARK  238  A    between atoms: _567  and  _568
REMARK  239  A    between atoms: _571  and  _573
REMARK  240  A    between atoms: _573  and  _574
REMARK  241  A    between atoms: _573  and  _576
REMARK  242  A    between atoms: _576  and  _577
REMARK  243  A    between atoms: _577  and  _578
REMARK  244  A    between atoms: _578  and  _579
REMARK  245  A    between atoms: _588  and  _590
REMARK  246  A    between atoms: _590  and  _591
REMARK  247  A    between atoms: _590  and  _593
REMARK  248  A    between atoms: _593  and  _594
REMARK  249  A    between atoms: _594  and  _595
REMARK  250  A    between atoms: _595  and  _596
REMARK  251  A    between atoms: _605  and  _607
REMARK  252  A    between atoms: _607  and  _608
REMARK  253  A    between atoms: _611  and  _613
REMARK  254  A    between atoms: _613  and  _614
REMARK  255  A    between atoms: _613  and  _616
REMARK  256  A    between atoms: _616  and  _617
REMARK  257  A    between atoms: _620  and  _622
REMARK  258  A    between atoms: _622  and  _623
REMARK  259  A    between atoms: _622  and  _625
REMARK  260  A    between atoms: _625  and  _626
REMARK  261  A    between atoms: _628  and  _630
REMARK  262  A    between atoms: _630  and  _631
REMARK  263  A    between atoms: _630  and  _633
REMARK  264  A    between atoms: _633  and  _634
REMARK  265  A    between atoms: _637  and  _639
REMARK  266  A    between atoms: _639  and  _640
REMARK  267  A    between atoms: _639  and  _642
REMARK  268  A    between atoms: _642  and  _643
REMARK  269  A    between atoms: _646  and  _648
REMARK  270  A    between atoms: _648  and  _649
REMARK  271  A    between atoms: _648  and  _651
REMARK  272  A    between atoms: _651  and  _652
REMARK  273  A    between atoms: _655  and  _657
REMARK  274  A    between atoms: _657  and  _658
REMARK  275  A    between atoms: _657  and  _660
REMARK  276  A    between atoms: _660  and  _661
REMARK                            x       y       z     vdW  Elec       q    Type
REMARK                         _______ _______ _______ _____ _____    ______ ____
ROOT
ATOM      1  CA  PHE A   8      57.525  11.793  17.576  0.00  0.00    +0.153 C 
ENDROOT
BRANCH   1   2
ATOM      2  C   PHE A   8      58.142  12.070  18.951  0.00  0.00    +0.241 C 
ATOM      3  N   ASN A   9      57.334  11.905  20.012  0.00  0.00    -0.297 N 
ATOM      4  H   ASN A   9      56.344  11.630  19.852  0.00  0.00    +0.150 HD
ATOM      5  O   PHE A   8      59.342  12.377  19.048  0.00  0.00    -0.273 OA
BRANCH   3   6
ATOM      6  CA  ASN A   9      57.789  12.094  21.351  0.00  0.00    +0.158 C 
BRANCH   6   7
ATOM      7  C   ASN A   9      58.196  13.549  21.614  0.00  0.00    +0.241 C 
ATOM      8  O   ASN A   9      58.972  13.837  22.512  0.00  0.00    -0.273 OA
ATOM      9  N   ARG A  10      57.692  14.494  20.827  0.00  0.00    -0.297 N 
ATOM     10  H   ARG A  10      57.123  14.251  19.991  0.00  0.00    +0.150 HD
BRANCH   9  11
ATOM     11  CA  ARG A  10      57.970  15.915  21.184  0.00  0.00    +0.149 C 
BRANCH  11  12
ATOM     12  C   ARG A  10      57.161  16.371  22.414  0.00  0.00    +0.241 C 
ATOM     13  N   HIS A  11      57.631  17.402  23.077  0.00  0.00    -0.297 N 
ATOM     14  H   HIS A  11      58.508  17.858  22.752  0.00  0.00    +0.150 HD
ATOM     15  O   ARG A  10      56.077  15.863  22.685  0.00  0.00    -0.273 OA
BRANCH  13  16
ATOM     16  CA  HIS A  11      56.962  17.916  24.242  0.00  0.00    +0.155 C 
BRANCH  16  17
ATOM     17  C   HIS A  11      55.716  18.757  23.871  0.00  0.00    +0.241 C 
ATOM     18  N   TRP A  12      54.635  18.622  24.650  0.00  0.00    -0.297 N 
ATOM     19  H   TRP A  12      54.652  17.913  25.410  0.00  0.00    +0.150 HD
ATOM     20  O   HIS A  11      55.714  19.478  22.887  0.00  0.00    -0.273 OA
BRANCH  18  21
ATOM     21  CA  TRP A  12      53.449  19.423  24.474  0.00  0.00    +0.153 C 
BRANCH  21  22
ATOM     22  C   TRP A  12      53.181  20.144  25.773  0.00  0.00    +0.241 C 
ATOM     23  O   TRP A  12      52.895  19.558  26.852  0.00  0.00    -0.273 OA
ATOM     24  N   SER A  13      53.196  21.434  25.665  0.00  0.00    -0.295 N 
ATOM     25  H   SER A  13      53.227  21.862  24.718  0.00  0.00    +0.150 HD
BRANCH  24  26
ATOM     26  CA  SER A  13      53.171  22.302  26.834  0.00  0.00    +0.178 C 
BRANCH  26  27
ATOM     27  C   SER A  13      51.747  22.294  27.369  0.00  0.00    +0.243 C 
ATOM     28  N   SER A  14      51.536  21.893  28.621  0.00  0.00    -0.295 N 
ATOM     29  H   SER A  14      52.337  21.692  29.253  0.00  0.00    +0.150 HD
ATOM     30  O   SER A  13      50.819  22.607  26.600  0.00  0.00    -0.273 OA
BRANCH  28  31
ATOM     31  CA  SER A  14      50.170  21.740  29.092  0.00  0.00    +0.178 C 
BRANCH  31  32
ATOM     32  C   SER A  14      49.864  22.542  30.404  0.00  0.00    +0.243 C 
ATOM     33  O   SER A  14      49.581  21.968  31.453  0.00  0.00    -0.273 OA
ATOM     34  N   SER A  15      49.924  23.855  30.371  0.00  0.00    -0.296 N 
ATOM     35  H   SER A  15      50.058  24.348  29.465  0.00  0.00    +0.150 HD
BRANCH  34  36
ATOM     36  CA  SER A  15      49.802  24.618  31.606  0.00  0.00    +0.166 C 
BRANCH  36  37
ATOM     37  C   SER A  15      48.499  24.504  32.397  0.00  0.00    +0.229 C 
ATOM     38  O   SER A  15      47.365  24.490  31.850  0.00  0.00    -0.286 OA
ENDBRANCH  36  37
BRANCH  36  39
ATOM     39  CB  SER A  15      50.125  26.064  31.314  0.00  0.00    +0.165 C 
BRANCH  39  40
ATOM     40  OG  SER A  15      51.533  26.141  31.421  0.00  0.00    -0.380 OA
ATOM     41  H   SER A  15      51.826  27.069  31.241  0.00  0.00    +0.211 HD
ENDBRANCH  39  40
ENDBRANCH  36  39
ENDBRANCH  34  36
ENDBRANCH  31  32
BRANCH  31  42
ATOM     42  CB  SER A  14      49.925  20.282  29.377  0.00  0.00    +0.166 C 
BRANCH  42  43
ATOM     43  OG  SER A  14      50.135  19.486  28.288  0.00  0.00    -0.380 OA
ATOM     44  H   SER A  14      51.073  19.582  27.987  0.00  0.00    +0.211 HD
ENDBRANCH  42  43
ENDBRANCH  31  42
ENDBRANCH  28  31
ENDBRANCH  26  27
BRANCH  26  45
ATOM     45  CB  SER A  13      53.578  23.696  26.362  0.00  0.00    +0.166 C 
BRANCH  45  46
ATOM     46  OG  SER A  13      53.967  24.444  27.456  0.00  0.00    -0.380 OA
ATOM     47  H   SER A  13      54.232  25.350  27.157  0.00  0.00    +0.211 HD
ENDBRANCH  45  46
ENDBRANCH  26  45
ENDBRANCH  24  26
ENDBRANCH  21  22
BRANCH  21  48
ATOM     48  CB  TRP A  12      52.221  18.547  24.142  0.00  0.00    +0.057 C 
BRANCH  48  49
ATOM     49  CG  TRP A  12      51.013  19.461  23.914  0.00  0.00    -0.002 A 
ATOM     50  CD1 TRP A  12      50.066  19.795  24.827  0.00  0.00    +0.068 A 
ATOM     51  NE1 TRP A  12      49.175  20.694  24.288  0.00  0.00    -0.352 N 
ATOM     52  HE1 TRP A  12      48.333  21.074  24.767  0.00  0.00    +0.166 HD
ATOM     53  CE2 TRP A  12      49.578  21.005  23.021  0.00  0.00    +0.056 A 
ATOM     54  CZ2 TRP A  12      49.007  21.890  22.075  0.00  0.00    +0.017 A 
ATOM     55  CH2 TRP A  12      49.628  21.989  20.851  0.00  0.00    +0.001 A 
ATOM     56  CZ3 TRP A  12      50.804  21.239  20.560  0.00  0.00    +0.000 A 
ATOM     57  CE3 TRP A  12      51.380  20.411  21.493  0.00  0.00    +0.001 A 
ATOM     58  CD2 TRP A  12      50.747  20.264  22.754  0.00  0.00    +0.013 A 
ENDBRANCH  48  49
ENDBRANCH  21  48
ENDBRANCH  18  21
ENDBRANCH  16  17
BRANCH  16  59
ATOM     59  CB  HIS A  11      58.033  18.570  25.168  0.00  0.00    +0.076 C 
BRANCH  59  60
ATOM     60  CG  HIS A  11      57.526  19.635  26.085  0.00  0.00    +0.082 A 
ATOM     61  ND1 HIS A  11      57.337  19.420  27.443  0.00  0.00    -0.227 NA
ATOM     62  CE1 HIS A  11      56.913  20.542  28.013  0.00  0.00    +0.199 A 
ATOM     63  NE2 HIS A  11      56.865  21.489  27.088  0.00  0.00    -0.221 NA
ATOM     64  CD2 HIS A  11      57.275  20.959  25.877  0.00  0.00    +0.115 A 
ENDBRANCH  59  60
ENDBRANCH  16  59
ENDBRANCH  13  16
ENDBRANCH  11  12
BRANCH  11  65
ATOM     65  CB  ARG A  10      57.580  16.858  20.080  0.00  0.00    +0.033 C 
BRANCH  65  66
ATOM     66  CG  ARG A  10      58.420  16.793  18.745  0.00  0.00    +0.045 C 
BRANCH  66  67
ATOM     67  CD  ARG A  10      57.583  17.699  17.863  0.00  0.00    +0.174 C 
BRANCH  67  68
ATOM     68  NE  ARG A  10      58.058  17.563  16.573  0.00  0.00    -0.265 N 
ATOM     69  HE  ARG A  10      59.076  17.739  16.455  0.00  0.00    +0.259 HD
ATOM     70  CZ  ARG A  10      57.411  17.243  15.468  0.00  0.00    +0.342 C 
ATOM     71  NH2 ARG A  10      56.108  17.033  15.369  0.00  0.00    -0.292 N 
ATOM     72 HH21 ARG A  10      55.502  17.117  16.210  0.00  0.00    +0.255 HD
ATOM     73 HH22 ARG A  10      55.690  16.784  14.450  0.00  0.00    +0.255 HD
ATOM     74  NH1 ARG A  10      58.192  17.211  14.432  0.00  0.00    -0.292 N 
ATOM     75 HH11 ARG A  10      59.204  17.425  14.537  0.00  0.00    +0.255 HD
ATOM     76 HH12 ARG A  10      57.806  16.971  13.497  0.00  0.00    +0.255 HD
ENDBRANCH  67  68
ENDBRANCH  66  67
ENDBRANCH  65  66
ENDBRANCH  11  65
ENDBRANCH   9  11
ENDBRANCH   6   7
BRANCH   6  77
ATOM     77  CB  ASN A   9      58.907  11.112  21.710  0.00  0.00    +0.114 C 
BRANCH  77  78
ATOM     78  CG  ASN A   9      59.137  11.012  23.282  0.00  0.00    +0.222 C 
ATOM     79  ND2 ASN A   9      57.999  11.005  24.071  0.00  0.00    -0.329 N 
ATOM     80 HD21 ASN A   9      58.084  10.936  25.105  0.00  0.00    +0.145 HD
ATOM     81 HD22 ASN A   9      57.060  11.068  23.629  0.00  0.00    +0.145 HD
ATOM     82  OD1 ASN A   9      60.296  10.937  23.776  0.00  0.00    -0.275 OA
ENDBRANCH  77  78
ENDBRANCH   6  77
ENDBRANCH   3   6
ENDBRANCH   1   2
BRANCH   1  85
ATOM     83  C   ARG A   7      55.702  13.351  17.866  0.00  0.00    +0.241 C 
ATOM     84  O   ARG A   7      56.433  14.233  18.374  0.00  0.00    -0.273 OA
ATOM     85  N   PHE A   8      56.128  12.131  17.550  0.00  0.00    -0.297 N 
ATOM     86  H   PHE A   8      55.435  11.405  17.278  0.00  0.00    +0.150 HD
BRANCH  83  87
ATOM     87  CA  ARG A   7      54.232  13.609  17.726  0.00  0.00    +0.149 C 
BRANCH  87  90
ATOM     88  C   GLY A   6      53.326  14.308  19.935  0.00  0.00    +0.243 C 
ATOM     89  O   GLY A   6      53.410  13.157  20.380  0.00  0.00    -0.273 OA
ATOM     90  N   ARG A   7      53.766  14.642  18.721  0.00  0.00    -0.297 N 
ATOM     91  H   ARG A   7      53.788  15.646  18.452  0.00  0.00    +0.150 HD
BRANCH  88  92
ATOM     92  CA  GLY A   6      52.743  15.436  20.775  0.00  0.00    +0.176 C 
BRANCH  92  95
ATOM     93  C   ARG A   5      52.805  14.825  23.098  0.00  0.00    +0.241 C 
ATOM     94  O   ARG A   5      51.552  14.619  23.059  0.00  0.00    -0.273 OA
ATOM     95  N   GLY A   6      53.437  15.401  22.081  0.00  0.00    -0.295 N 
ATOM     96  H   GLY A   6      54.385  15.812  22.199  0.00  0.00    +0.150 HD
BRANCH  93  97
ATOM     97  CA  ARG A   5      53.645  14.521  24.354  0.00  0.00    +0.149 C 
BRANCH  97 100
ATOM     98  C   GLY A   4      53.383  15.758  26.484  0.00  0.00    +0.243 C 
ATOM     99  O   GLY A   4      54.505  16.255  26.472  0.00  0.00    -0.273 OA
ATOM    100  N   ARG A   5      52.905  14.922  25.544  0.00  0.00    -0.297 N 
ATOM    101  H   ARG A   5      51.947  14.538  25.675  0.00  0.00    +0.150 HD
BRANCH  98 102
ATOM    102  CA  GLY A   4      52.463  15.996  27.655  0.00  0.00    +0.176 C 
BRANCH 102 104
ATOM    103  C   LYS A   3      53.723  14.710  29.294  0.00  0.00    +0.241 C 
ATOM    104  N   GLY A   4      53.183  15.854  28.903  0.00  0.00    -0.295 N 
ATOM    105  H   GLY A   4      53.280  16.686  29.519  0.00  0.00    +0.150 HD
ATOM    106  O   LYS A   3      53.572  13.653  28.693  0.00  0.00    -0.273 OA
BRANCH 103 107
ATOM    107  CA  LYS A   3      54.497  14.759  30.614  0.00  0.00    +0.149 C 
BRANCH 107 110
ATOM    108  C   THR A   2      54.308  16.342  32.447  0.00  0.00    +0.243 C 
ATOM    109  O   THR A   2      55.485  16.546  32.457  0.00  0.00    -0.273 OA
ATOM    110  N   LYS A   3      53.722  15.499  31.611  0.00  0.00    -0.297 N 
ATOM    111  H   LYS A   3      52.693  15.360  31.664  0.00  0.00    +0.150 HD
BRANCH 108 112
ATOM    112  CA  THR A   2      53.456  16.987  33.477  0.00  0.00    +0.176 C 
BRANCH 112 114
ATOM    113  C   GLN A   1      51.402  17.700  32.552  0.00  0.00    +0.238 C 
ATOM    114  N   THR A   2      52.072  16.716  33.142  0.00  0.00    -0.295 N 
ATOM    115  H   THR A   2      51.627  15.800  33.352  0.00  0.00    +0.150 HD
ATOM    116  O   GLN A   1      51.924  18.763  32.248  0.00  0.00    -0.274 OA
BRANCH 113 117
ATOM    117  CA  GLN A   1      49.966  17.467  32.274  0.00  0.00    +0.145 C 
BRANCH 117 118
ATOM    118  N   GLN A   1      49.269  18.727  32.545  0.00  0.00    -0.238 NA
ATOM    119  H   GLN A   1      49.578  19.606  32.083  0.00  0.00    +0.142 HD
ENDBRANCH 117 118
BRANCH 117 120
ATOM    120  CB  GLN A   1      49.763  16.907  30.843  0.00  0.00    +0.036 C 
BRANCH 120 121
ATOM    121  CG  GLN A   1      48.335  16.779  30.360  0.00  0.00    +0.087 C 
BRANCH 121 122
ATOM    122  CD  GLN A   1      48.238  16.224  28.914  0.00  0.00    +0.219 C 
ATOM    123  OE1 GLN A   1      47.735  15.089  28.704  0.00  0.00    -0.275 OA
ATOM    124  NE2 GLN A   1      48.722  17.012  27.902  0.00  0.00    -0.329 N 
ATOM    125 HE21 GLN A   1      49.130  17.944  28.118  0.00  0.00    +0.145 HD
ATOM    126 HE22 GLN A   1      48.681  16.678  26.918  0.00  0.00    +0.145 HD
ENDBRANCH 121 122
ENDBRANCH 120 121
ENDBRANCH 117 120
ENDBRANCH 113 117
ENDBRANCH 112 114
BRANCH 112 127
ATOM    127  CB  THR A   2      53.868  16.388  34.865  0.00  0.00    +0.137 C 
ATOM    128  CG2 THR A   2      53.215  17.225  35.996  0.00  0.00    +0.034 C 
BRANCH 127 129
ATOM    129  OG1 THR A   2      53.402  15.024  34.947  0.00  0.00    -0.382 OA
ATOM    130  HG1 THR A   2      53.811  14.492  34.219  0.00  0.00    +0.210 HD
ENDBRANCH 127 129
ENDBRANCH 112 127
ENDBRANCH 108 112
ENDBRANCH 107 110
BRANCH 107 131
ATOM    131  CB  LYS A   3      54.796  13.359  31.108  0.00  0.00    +0.029 C 
BRANCH 131 132
ATOM    132  CG  LYS A   3      55.946  12.730  30.312  0.00  0.00    +0.000 C 
BRANCH 132 133
ATOM    133  CD  LYS A   3      56.373  11.354  30.836  0.00  0.00    -0.024 C 
BRANCH 133 134
ATOM    134  CE  LYS A   3      57.733  10.974  30.179  0.00  0.00    -0.086 C 
BRANCH 134 135
ATOM    135  NZ  LYS A   3      58.287   9.647  30.694  0.00  0.00    +0.380 N 
ATOM    136  HZ1 LYS A   3      58.436   9.710  31.721  0.00  0.00    -0.089 HD
ATOM    137  HZ2 LYS A   3      57.609   8.886  30.487  0.00  0.00    -0.089 HD
ATOM    138  HZ3 LYS A   3      59.192   9.444  30.223  0.00  0.00    -0.089 HD
ENDBRANCH 134 135
ENDBRANCH 133 134
ENDBRANCH 132 133
ENDBRANCH 131 132
ENDBRANCH 107 131
ENDBRANCH 103 107
ENDBRANCH 102 104
ENDBRANCH  98 102
ENDBRANCH  97 100
BRANCH  97 139
ATOM    139  CB  ARG A   5      54.018  13.104  24.472  0.00  0.00    +0.033 C 
BRANCH 139 140
ATOM    140  CG  ARG A   5      55.056  12.886  25.634  0.00  0.00    +0.045 C 
BRANCH 140 141
ATOM    141  CD  ARG A   5      56.450  13.598  25.386  0.00  0.00    +0.174 C 
BRANCH 141 142
ATOM    142  NE  ARG A   5      57.444  13.499  26.476  0.00  0.00    -0.265 N 
ATOM    143  CZ  ARG A   5      57.574  14.385  27.501  0.00  0.00    +0.342 C 
ATOM    144  NH2 ARG A   5      58.536  14.215  28.396  0.00  0.00    -0.292 N 
ATOM    145 HH21 ARG A   5      58.640  14.889  29.181  0.00  0.00    +0.255 HD
ATOM    146 HH22 ARG A   5      59.187  13.408  28.313  0.00  0.00    +0.255 HD
ATOM    147  NH1 ARG A   5      56.714  15.416  27.704  0.00  0.00    -0.292 N 
ATOM    148 HH11 ARG A   5      56.859  16.065  28.504  0.00  0.00    +0.255 HD
ATOM    149 HH12 ARG A   5      55.910  15.557  27.060  0.00  0.00    +0.255 HD
ATOM    150  HE  ARG A   5      58.095  12.688  26.458  0.00  0.00    +0.259 HD
ENDBRANCH 141 142
ENDBRANCH 140 141
ENDBRANCH 139 140
ENDBRANCH  97 139
ENDBRANCH  93  97
ENDBRANCH  92  95
ENDBRANCH  88  92
ENDBRANCH  87  90
BRANCH  87 151
ATOM    151  CB  ARG A   7      53.871  14.044  16.309  0.00  0.00    +0.033 C 
BRANCH 151 152
ATOM    152  CG  ARG A   7      52.350  14.106  16.160  0.00  0.00    +0.045 C 
BRANCH 152 153
ATOM    153  CD  ARG A   7      51.908  14.802  14.889  0.00  0.00    +0.174 C 
BRANCH 153 154
ATOM    154  NE  ARG A   7      52.276  14.028  13.710  0.00  0.00    -0.265 N 
ATOM    155  HE  ARG A   7      52.327  12.994  13.809  0.00  0.00    +0.259 HD
ATOM    156  CZ  ARG A   7      52.555  14.554  12.502  0.00  0.00    +0.342 C 
ATOM    157  NH2 ARG A   7      52.555  15.859  12.306  0.00  0.00    -0.292 N 
ATOM    158 HH21 ARG A   7      52.337  16.503  13.093  0.00  0.00    +0.255 HD
ATOM    159 HH22 ARG A   7      52.773  16.243  11.365  0.00  0.00    +0.255 HD
ATOM    160  NH1 ARG A   7      52.830  13.761  11.470  0.00  0.00    -0.292 N 
ATOM    161 HH11 ARG A   7      52.830  12.728  11.593  0.00  0.00    +0.255 HD
ATOM    162 HH12 ARG A   7      53.045  14.174  10.540  0.00  0.00    +0.255 HD
ENDBRANCH 153 154
ENDBRANCH 152 153
ENDBRANCH 151 152
ENDBRANCH  87 151
ENDBRANCH  83  87
ENDBRANCH   1  85
BRANCH   1 163
ATOM    163  CB  PHE A   8      58.290  12.635  16.491  0.00  0.00    +0.055 C 
BRANCH 163 164
ATOM    164  CG  PHE A   8      57.689  12.517  15.110  0.00  0.00    -0.020 A 
ATOM    165  CD2 PHE A   8      56.899  13.536  14.589  0.00  0.00    -0.004 A 
ATOM    166  CE2 PHE A   8      56.303  13.412  13.351  0.00  0.00    -0.000 A 
ATOM    167  CZ  PHE A   8      56.471  12.269  12.624  0.00  0.00    -0.000 A 
ATOM    168  CE1 PHE A   8      57.259  11.223  13.108  0.00  0.00    -0.000 A 
ATOM    169  CD1 PHE A   8      57.854  11.339  14.363  0.00  0.00    -0.004 A 
ENDBRANCH 163 164
ENDBRANCH   1 163
TORSDOF 66
REMARK  Name = ../refined-set-2016/4dq2/4dq2_pocket.pdb
REMARK  276 active torsions:
REMARK  status: ('A' for Active; 'I' for Inactive)
REMARK    1  A    between atoms: _1  and  _3
REMARK    2  A    between atoms: _3  and  _4
REMARK    3  A    between atoms: _3  and  _6
REMARK    4  A    between atoms: _6  and  _7
REMARK    5  A    between atoms: _10  and  _12
REMARK    6  A    between atoms: _12  and  _13
REMARK    7  A    between atoms: _12  and  _15
REMARK    8  A    between atoms: _15  and  _16
REMARK    9  A    between atoms: _19  and  _21
REMARK   10  A    between atoms: _21  and  _22
REMARK   11  A    between atoms: _21  and  _24
REMARK   12  A    between atoms: _24  and  _25
REMARK   13  A    between atoms: _27  and  _29
REMARK   14  A    between atoms: _29  and  _30
REMARK   15  A    between atoms: _29  and  _32
REMARK   16  A    between atoms: _32  and  _33
REMARK   17  A    between atoms: _36  and  _38
REMARK   18  A    between atoms: _38  and  _39
REMARK   19  A    between atoms: _38  and  _41
REMARK   20  A    between atoms: _41  and  _42
REMARK   21  A    between atoms: _42  and  _43
REMARK   22  A    between atoms: _48  and  _50
REMARK   23  A    between atoms: _50  and  _51
REMARK   24  A    between atoms: _50  and  _53
REMARK   25  A    between atoms: _53  and  _54
REMARK   26  A    between atoms: _57  and  _59
REMARK   27  A    between atoms: _59  and  _60
REMARK   28  A    between atoms: _63  and  _65
REMARK   29  A    between atoms: _65  and  _66
REMARK   30  A    between atoms: _69  and  _71
REMARK   31  A    between atoms: _71  and  _72
REMARK   32  A    between atoms: _71  and  _74
REMARK   33  A    between atoms: _74  and  _75
REMARK   34  A    between atoms: _75  and  _76
REMARK   35  A    between atoms: _76  and  _77
REMARK   36  A    between atoms: _77  and  _78
REMARK   37  A    between atoms: _82  and  _84
REMARK   38  A    between atoms: _84  and  _85
REMARK   39  A    between atoms: _84  and  _87
REMARK   40  A    between atoms: _87  and  _88
REMARK   41  A    between atoms: _91  and  _93
REMARK   42  A    between atoms: _93  and  _94
REMARK   43  A    between atoms: _93  and  _96
REMARK   44  A    between atoms: _96  and  _97
REMARK   45  A    between atoms: _99  and  _101
REMARK   46  A    between atoms: _101  and  _102
REMARK   47  A    between atoms: _101  and  _104
REMARK   48  A    between atoms: _104  and  _105
REMARK   49  A    between atoms: _105  and  _106
REMARK   50  A    between atoms: _111  and  _113
REMARK   51  A    between atoms: _113  and  _114
REMARK   52  A    between atoms: _113  and  _116
REMARK   53  A    between atoms: _116  and  _117
REMARK   54  A    between atoms: _120  and  _122
REMARK   55  A    between atoms: _122  and  _123
REMARK   56  A    between atoms: _122  and  _125
REMARK   57  A    between atoms: _125  and  _126
REMARK   58  A    between atoms: _126  and  _127
REMARK   59  A    between atoms: _127  and  _128
REMARK   60  A    between atoms: _128  and  _129
REMARK   61  A    between atoms: _133  and  _135
REMARK   62  A    between atoms: _135  and  _136
REMARK   63  A    between atoms: _138  and  _140
REMARK   64  A    between atoms: _140  and  _141
REMARK   65  A    between atoms: _140  and  _143
REMARK   66  A    between atoms: _143  and  _144
REMARK   67  A    between atoms: _144  and  _145
REMARK   68  A    between atoms: _145  and  _146
REMARK   69  A    between atoms: _155  and  _157
REMARK   70  A    between atoms: _157  and  _158
REMARK   71  A    between atoms: _160  and  _162
REMARK   72  A    between atoms: _162  and  _163
REMARK   73  A    between atoms: _162  and  _165
REMARK   74  A    between atoms: _165  and  _166
REMARK   75  A    between atoms: _166  and  _167
REMARK   76  A    between atoms: _167  and  _168
REMARK   77  A    between atoms: _177  and  _179
REMARK   78  A    between atoms: _179  and  _180
REMARK   79  A    between atoms: _179  and  _182
REMARK   80  A    between atoms: _182  and  _183
REMARK   81  A    between atoms: _189  and  _191
REMARK   82  A    between atoms: _191  and  _192
REMARK   83  A    between atoms: _191  and  _194
REMARK   84  A    between atoms: _194  and  _195
REMARK   85  A    between atoms: _200  and  _202
REMARK   86  A    between atoms: _202  and  _203
REMARK   87  A    between atoms: _202  and  _205
REMARK   88  A    between atoms: _205  and  _206
REMARK   89  A    between atoms: _206  and  _207
REMARK   90  A    between atoms: _207  and  _208
REMARK   91  A    between atoms: _217  and  _219
REMARK   92  A    between atoms: _219  and  _220
REMARK   93  A    between atoms: _219  and  _222
REMARK   94  A    between atoms: _222  and  _223
REMARK   95  A    between atoms: _228  and  _230
REMARK   96  A    between atoms: _230  and  _231
REMARK   97  A    between atoms: _230  and  _233
REMARK   98  A    between atoms: _233  and  _234
REMARK   99  A    between atoms: _244  and  _246
REMARK  100  A    between atoms: _246  and  _247
REMARK  101  A    between atoms: _246  and  _249
REMARK  102  A    between atoms: _249  and  _250
REMARK  103  A    between atoms: _252  and  _254
REMARK  104  A    between atoms: _254  and  _255
REMARK  105  A    between atoms: _254  and  _257
REMARK  106  A    between atoms: _257  and  _258
REMARK  107  A    between atoms: _260  and  _262
REMARK  108  A    between atoms: _262  and  _263
REMARK  109  A    between atoms: _262  and  _265
REMARK  110  A    between atoms: _265  and  _266
REMARK  111  A    between atoms: _268  and  _270
REMARK  112  A    between atoms: _270  and  _271
REMARK  113  A    between atoms: _273  and  _275
REMARK  114  A    between atoms: _275  and  _276
REMARK  115  A    between atoms: _275  and  _278
REMARK  116  A    between atoms: _278  and  _279
REMARK  117  A    between atoms: _282  and  _284
REMARK  118  A    between atoms: _284  and  _285
REMARK  119  A    between atoms: _284  and  _287
REMARK  120  A    between atoms: _287  and  _288
REMARK  121  A    between atoms: _298  and  _300
REMARK  122  A    between atoms: _300  and  _301
REMARK  123  A    between atoms: _300  and  _303
REMARK  124  A    between atoms: _303  and  _304
REMARK  125  A    between atoms: _304  and  _305
REMARK  126  A    between atoms: _307  and  _309
REMARK  127  A    between atoms: _309  and  _310
REMARK  128  A    between atoms: _309  and  _312
REMARK  129  A    between atoms: _312  and  _313
REMARK  130  A    between atoms: _315  and  _317
REMARK  131  A    between atoms: _317  and  _318
REMARK  132  A    between atoms: _317  and  _320
REMARK  133  A    between atoms: _323  and  _325
REMARK  134  A    between atoms: _325  and  _326
REMARK  135  A    between atoms: _325  and  _328
REMARK  136  A    between atoms: _328  and  _329
REMARK  137  A    between atoms: _329  and  _330
REMARK  138  A    between atoms: _330  and  _331
REMARK  139  A    between atoms: _331  and  _332
REMARK  140  A    between atoms: _336  and  _338
REMARK  141  A    between atoms: _338  and  _339
REMARK  142  A    between atoms: _338  and  _341
REMARK  143  A    between atoms: _341  and  _342
REMARK  144  A    between atoms: _347  and  _349
REMARK  145  A    between atoms: _349  and  _350
REMARK  146  A    between atoms: _349  and  _352
REMARK  147  A    between atoms: _352  and  _353
REMARK  148  A    between atoms: _356  and  _358
REMARK  149  A    between atoms: _358  and  _359
REMARK  150  A    between atoms: _358  and  _361
REMARK  151  A    between atoms: _361  and  _362
REMARK  152  A    between atoms: _365  and  _367
REMARK  153  A    between atoms: _367  and  _368
REMARK  154  A    between atoms: _367  and  _370
REMARK  155  A    between atoms: _370  and  _371
REMARK  156  A    between atoms: _376  and  _377
REMARK  157  A    between atoms: _379  and  _381
REMARK  158  A    between atoms: _381  and  _382
REMARK  159  A    between atoms: _384  and  _386
REMARK  160  A    between atoms: _386  and  _387
REMARK  161  A    between atoms: _386  and  _389
REMARK  162  A    between atoms: _389  and  _390
REMARK  163  A    between atoms: _390  and  _391
REMARK  164  A    between atoms: _391  and  _392
REMARK  165  A    between atoms: _392  and  _393
REMARK  166  A    between atoms: _397  and  _399
REMARK  167  A    between atoms: _399  and  _400
REMARK  168  A    between atoms: _399  and  _402
REMARK  169  A    between atoms: _405  and  _407
REMARK  170  A    between atoms: _407  and  _408
REMARK  171  A    between atoms: _407  and  _410
REMARK  172  A    between atoms: _412  and  _414
REMARK  173  A    between atoms: _414  and  _415
REMARK  174  A    between atoms: _417  and  _419
REMARK  175  A    between atoms: _419  and  _420
REMARK  176  A    between atoms: _419  and  _422
REMARK  177  A    between atoms: _422  and  _423
REMARK  178  A    between atoms: _429  and  _431
REMARK  179  A    between atoms: _431  and  _432
REMARK  180  A    between atoms: _431  and  _434
REMARK  181  A    between atoms: _434  and  _435
REMARK  182  A    between atoms: _438  and  _440
REMARK  183  A    between atoms: _440  and  _441
REMARK  184  A    between atoms: _440  and  _443
REMARK  185  A    between atoms: _443  and  _444
REMARK  186  A    between atoms: _447  and  _449
REMARK  187  A    between atoms: _449  and  _450
REMARK  188  A    between atoms: _449  and  _452
REMARK  189  A    between atoms: _452  and  _453
REMARK  190  A    between atoms: _453  and  _454
REMARK  191  A    between atoms: _457  and  _459
REMARK  192  A    between atoms: _459  and  _460
REMARK  193  A    between atoms: _459  and  _462
REMARK  194  A    between atoms: _462  and  _463
REMARK  195  A    between atoms: _466  and  _468
REMARK  196  A    between atoms: _468  and  _469
REMARK  197  A    between atoms: _468  and  _471
REMARK  198  A    between atoms: _473  and  _475
REMARK  199  A    between atoms: _475  and  _476
REMARK  200  A    between atoms: _478  and  _480
REMARK  201  A    between atoms: _480  and  _481
REMARK  202  A    between atoms: _480  and  _483
REMARK  203  A    between atoms: _483  and  _484
REMARK  204  A    between atoms: _487  and  _489
REMARK  205  A    between atoms: _489  and  _490
REMARK  206  A    between atoms: _492  and  _494
REMARK  207  A    between atoms: _494  and  _495
REMARK  208  A    between atoms: _494  and  _497
REMARK  209  A    between atoms: _497  and  _498
REMARK  210  A    between atoms: _501  and  _503
REMARK  211  A    between atoms: _503  and  _504
REMARK  212  A    between atoms: _503  and  _506
REMARK  213  A    between atoms: _506  and  _507
REMARK  214  A    between atoms: _512  and  _514
REMARK  215  A    between atoms: _514  and  _515
REMARK  216  A    between atoms: _514  and  _517
REMARK  217  A    between atoms: _517  and  _518
REMARK  218  A    between atoms: _521  and  _523
REMARK  219  A    between atoms: _523  and  _524
REMARK  220  A    between atoms: _523  and  _526
REMARK  221  A    between atoms: _526  and  _527
REMARK  222  A    between atoms: _527  and  _528
REMARK  223  A    between atoms: _533  and  _535
REMARK  224  A    between atoms: _535  and  _536
REMARK  225  A    between atoms: _535  and  _538
REMARK  226  A    between atoms: _538  and  _539
REMARK  227  A    between atoms: _545  and  _547
REMARK  228  A    between atoms: _547  and  _548
REMARK  229  A    between atoms: _547  and  _550
REMARK  230  A    between atoms: _550  and  _551
REMARK  231  A    between atoms: _554  and  _556
REMARK  232  A    between atoms: _556  and  _557
REMARK  233  A    between atoms: _556  and  _559
REMARK  234  A    between atoms: _559  and  _560
REMARK  235  A    between atoms: _562  and  _564
REMARK  236  A    between atoms: _564  and  _565
REMARK  237  A    between atoms: _564  and  _567
REMARK  238  A    between atoms: _567  and  _568
REMARK  239  A    between atoms: _571  and  _573
REMARK  240  A    between atoms: _573  and  _574
REMARK  241  A    between atoms: _573  and  _576
REMARK  242  A    between atoms: _576  and  _577
REMARK  243  A    between atoms: _577  and  _578
REMARK  244  A    between atoms: _578  and  _579
REMARK  245  A    between atoms: _588  and  _590
REMARK  246  A    between atoms: _590  and  _591
REMARK  247  A    between atoms: _590  and  _593
REMARK  248  A    between atoms: _593  and  _594
REMARK  249  A    between atoms: _594  and  _595
REMARK  250  A    between atoms: _595  and  _596
REMARK  251  A    between atoms: _605  and  _607
REMARK  252  A    between atoms: _607  and  _608
REMARK  253  A    between atoms: _611  and  _613
REMARK  254  A    between atoms: _613  and  _614
REMARK  255  A    between atoms: _613  and  _616
REMARK  256  A    between atoms: _616  and  _617
REMARK  257  A    between atoms: _620  and  _622
REMARK  258  A    between atoms: _622  and  _623
REMARK  259  A    between atoms: _622  and  _625
REMARK  260  A    between atoms: _625  and  _626
REMARK  261  A    between atoms: _628  and  _630
REMARK  262  A    between atoms: _630  and  _631
REMARK  263  A    between atoms: _630  and  _633
REMARK  264  A    between atoms: _633  and  _634
REMARK  265  A    between atoms: _637  and  _639
REMARK  266  A    between atoms: _639  and  _640
REMARK  267  A    between atoms: _639  and  _642
REMARK  268  A    between atoms: _642  and  _643
REMARK  269  A    between atoms: _646  and  _648
REMARK  270  A    between atoms: _648  and  _649
REMARK  271  A    between atoms: _648  and  _651
REMARK  272  A    between atoms: _651  and  _652
REMARK  273  A    between atoms: _655  and  _657
REMARK  274  A    between atoms: _657  and  _658
REMARK  275  A    between atoms: _657  and  _660
REMARK  276  A    between atoms: _660  and  _661
REMARK                            x       y       z     vdW  Elec       q    Type
REMARK                         _______ _______ _______ _____ _____    ______ ____
ROOT
ATOM      1  CA  TRP A   3      44.097  18.663  27.601  0.00  0.00    +0.153 C 
ENDROOT
BRANCH   1   3
ATOM      2  C   LEU A   2      42.819  20.687  26.860  0.00  0.00    +0.241 C 
ATOM      3  N   TRP A   3      43.173  19.790  27.811  0.00  0.00    -0.297 N 
ATOM      4  H   TRP A   3      42.762  19.906  28.759  0.00  0.00    +0.150 HD
ATOM      5  O   LEU A   2      43.296  20.716  25.679  0.00  0.00    -0.273 OA
BRANCH   2   6
ATOM      6  CA  LEU A   2      41.805  21.733  27.292  0.00  0.00    +0.149 C 
BRANCH   6   9
ATOM      7  C   GLY A   1      43.099  23.482  28.310  0.00  0.00    +0.240 C 
ATOM      8  O   GLY A   1      42.961  23.003  29.482  0.00  0.00    -0.274 OA
ATOM      9  N   LEU A   2      42.518  22.975  27.224  0.00  0.00    -0.297 N 
ATOM     10  H   LEU A   2      42.582  23.484  26.319  0.00  0.00    +0.150 HD
BRANCH   7  11
ATOM     11  CA  GLY A   1      43.907  24.716  28.061  0.00  0.00    +0.169 C 
BRANCH  11  12
ATOM     12  N   GLY A   1      44.295  25.417  29.268  0.00  0.00    -0.236 NA
ATOM     13  H   GLY A   1      44.373  24.897  30.166  0.00  0.00    +0.142 HD
ENDBRANCH  11  12
ENDBRANCH   7  11
ENDBRANCH   6   9
BRANCH   6  14
ATOM     14  CB  LEU A   2      40.703  21.808  26.336  0.00  0.00    +0.029 C 
BRANCH  14  15
ATOM     15  CG  LEU A   2      39.824  20.593  26.262  0.00  0.00    +0.002 C 
ATOM     16  CD2 LEU A   2      38.493  21.077  26.027  0.00  0.00    +0.000 C 
ATOM     17  CD1 LEU A   2      40.233  19.729  25.086  0.00  0.00    +0.000 C 
ENDBRANCH  14  15
ENDBRANCH   6  14
ENDBRANCH   2   6
ENDBRANCH   1   3
BRANCH   1  18
ATOM     18  C   TRP A   3      43.295  17.418  27.809  0.00  0.00    +0.241 C 
ATOM     19  O   TRP A   3      42.994  17.044  28.947  0.00  0.00    -0.273 OA
ATOM     20  N   MET A   4      43.000  16.732  26.695  0.00  0.00    -0.297 N 
ATOM     21  H   MET A   4      43.546  16.936  25.834  0.00  0.00    +0.150 HD
BRANCH  20  22
ATOM     22  CA  MET A   4      41.987  15.746  26.625  0.00  0.00    +0.149 C 
BRANCH  22  23
ATOM     23  C   MET A   4      42.423  14.550  25.761  0.00  0.00    +0.241 C 
ATOM     24  N   SER A   5      41.995  13.339  26.166  0.00  0.00    -0.295 N 
ATOM     25  H   SER A   5      41.606  13.224  27.124  0.00  0.00    +0.150 HD
ATOM     26  O   MET A   4      43.060  14.746  24.680  0.00  0.00    -0.273 OA
BRANCH  24  27
ATOM     27  CA  SER A   5      42.071  12.195  25.279  0.00  0.00    +0.178 C 
BRANCH  27  28
ATOM     28  C   SER A   5      40.693  11.566  25.087  0.00  0.00    +0.243 C 
ATOM     29  O   SER A   5      39.988  11.376  26.056  0.00  0.00    -0.273 OA
ATOM     30  N   VAL A   6      40.324  11.202  23.862  0.00  0.00    -0.298 N 
ATOM     31  H   VAL A   6      40.993  11.339  23.077  0.00  0.00    +0.150 HD
BRANCH  30  32
ATOM     32  CA  VAL A   6      39.037  10.626  23.580  0.00  0.00    +0.137 C 
BRANCH  32  33
ATOM     33  CB  VAL A   6      38.336  11.450  22.473  0.00  0.00    +0.026 C 
ATOM     34  CG2 VAL A   6      38.153  12.904  22.917  0.00  0.00    +0.002 C 
ATOM     35  CG1 VAL A   6      36.961  10.931  22.240  0.00  0.00    +0.002 C 
ENDBRANCH  32  33
BRANCH  32  36
ATOM     36  C   VAL A   6      39.203   9.191  23.108  0.00  0.00    +0.227 C 
ATOM     37  O   VAL A   6      39.983   8.952  22.195  0.00  0.00    -0.286 OA
ENDBRANCH  32  36
ENDBRANCH  30  32
ENDBRANCH  27  28
BRANCH  27  38
ATOM     38  CB  SER A   5      43.067  11.186  25.837  0.00  0.00    +0.166 C 
BRANCH  38  39
ATOM     39  OG  SER A   5      44.359  11.801  25.804  0.00  0.00    -0.380 OA
ATOM     40  H   SER A   5      44.347  12.621  26.358  0.00  0.00    +0.211 HD
ENDBRANCH  38  39
ENDBRANCH  27  38
ENDBRANCH  24  27
ENDBRANCH  22  23
BRANCH  22  41
ATOM     41  CB  MET A   4      40.725  16.372  26.035  0.00  0.00    +0.041 C 
BRANCH  41  42
ATOM     42  CG  MET A   4      39.545  15.425  25.988  0.00  0.00    +0.060 C 
BRANCH  42  43
ATOM     43  SD  MET A   4      37.876  16.052  25.553  0.00  0.00    -0.139 S 
ATOM     44  CE  MET A   4      38.347  16.945  24.131  0.00  0.00    +0.069 C 
ENDBRANCH  42  43
ENDBRANCH  41  42
ENDBRANCH  22  41
ENDBRANCH  20  22
ENDBRANCH   1  18
BRANCH   1  45
ATOM     45  CB  TRP A   3      45.327  18.677  28.506  0.00  0.00    +0.057 C 
BRANCH  45  46
ATOM     46  CG  TRP A   3      45.851  20.087  28.849  0.00  0.00    -0.002 A 
ATOM     47  CD1 TRP A   3      45.904  20.640  30.104  0.00  0.00    +0.068 A 
ATOM     48  NE1 TRP A   3      46.369  21.940  30.048  0.00  0.00    -0.352 N 
ATOM     49  HE1 TRP A   3      46.535  22.559  30.867  0.00  0.00    +0.166 HD
ATOM     50  CE2 TRP A   3      46.575  22.280  28.740  0.00  0.00    +0.056 A 
ATOM     51  CZ2 TRP A   3      47.022  23.480  28.197  0.00  0.00    +0.017 A 
ATOM     52  CH2 TRP A   3      47.122  23.567  26.833  0.00  0.00    +0.001 A 
ATOM     53  CZ3 TRP A   3      46.778  22.481  26.009  0.00  0.00    +0.000 A 
ATOM     54  CE3 TRP A   3      46.315  21.268  26.564  0.00  0.00    +0.001 A 
ATOM     55  CD2 TRP A   3      46.242  21.150  27.946  0.00  0.00    +0.013 A 
ENDBRANCH  45  46
ENDBRANCH   1  45
TORSDOF 22
REMARK  Name = ../refined-set-2016/4dq2/4dq2_pocket.pdb
REMARK  276 active torsions:
REMARK  status: ('A' for Active; 'I' for Inactive)
REMARK    1  A    between atoms: _1  and  _3
REMARK    2  A    between atoms: _3  and  _4
REMARK    3  A    between atoms: _3  and  _6
REMARK    4  A    between atoms: _6  and  _7
REMARK    5  A    between atoms: _10  and  _12
REMARK    6  A    between atoms: _12  and  _13
REMARK    7  A    between atoms: _12  and  _15
REMARK    8  A    between atoms: _15  and  _16
REMARK    9  A    between atoms: _19  and  _21
REMARK   10  A    between atoms: _21  and  _22
REMARK   11  A    between atoms: _21  and  _24
REMARK   12  A    between atoms: _24  and  _25
REMARK   13  A    between atoms: _27  and  _29
REMARK   14  A    between atoms: _29  and  _30
REMARK   15  A    between atoms: _29  and  _32
REMARK   16  A    between atoms: _32  and  _33
REMARK   17  A    between atoms: _36  and  _38
REMARK   18  A    between atoms: _38  and  _39
REMARK   19  A    between atoms: _38  and  _41
REMARK   20  A    between atoms: _41  and  _42
REMARK   21  A    between atoms: _42  and  _43
REMARK   22  A    between atoms: _48  and  _50
REMARK   23  A    between atoms: _50  and  _51
REMARK   24  A    between atoms: _50  and  _53
REMARK   25  A    between atoms: _53  and  _54
REMARK   26  A    between atoms: _57  and  _59
REMARK   27  A    between atoms: _59  and  _60
REMARK   28  A    between atoms: _63  and  _65
REMARK   29  A    between atoms: _65  and  _66
REMARK   30  A    between atoms: _69  and  _71
REMARK   31  A    between atoms: _71  and  _72
REMARK   32  A    between atoms: _71  and  _74
REMARK   33  A    between atoms: _74  and  _75
REMARK   34  A    between atoms: _75  and  _76
REMARK   35  A    between atoms: _76  and  _77
REMARK   36  A    between atoms: _77  and  _78
REMARK   37  A    between atoms: _82  and  _84
REMARK   38  A    between atoms: _84  and  _85
REMARK   39  A    between atoms: _84  and  _87
REMARK   40  A    between atoms: _87  and  _88
REMARK   41  A    between atoms: _91  and  _93
REMARK   42  A    between atoms: _93  and  _94
REMARK   43  A    between atoms: _93  and  _96
REMARK   44  A    between atoms: _96  and  _97
REMARK   45  A    between atoms: _99  and  _101
REMARK   46  A    between atoms: _101  and  _102
REMARK   47  A    between atoms: _101  and  _104
REMARK   48  A    between atoms: _104  and  _105
REMARK   49  A    between atoms: _105  and  _106
REMARK   50  A    between atoms: _111  and  _113
REMARK   51  A    between atoms: _113  and  _114
REMARK   52  A    between atoms: _113  and  _116
REMARK   53  A    between atoms: _116  and  _117
REMARK   54  A    between atoms: _120  and  _122
REMARK   55  A    between atoms: _122  and  _123
REMARK   56  A    between atoms: _122  and  _125
REMARK   57  A    between atoms: _125  and  _126
REMARK   58  A    between atoms: _126  and  _127
REMARK   59  A    between atoms: _127  and  _128
REMARK   60  A    between atoms: _128  and  _129
REMARK   61  A    between atoms: _133  and  _135
REMARK   62  A    between atoms: _135  and  _136
REMARK   63  A    between atoms: _138  and  _140
REMARK   64  A    between atoms: _140  and  _141
REMARK   65  A    between atoms: _140  and  _143
REMARK   66  A    between atoms: _143  and  _144
REMARK   67  A    between atoms: _144  and  _145
REMARK   68  A    between atoms: _145  and  _146
REMARK   69  A    between atoms: _155  and  _157
REMARK   70  A    between atoms: _157  and  _158
REMARK   71  A    between atoms: _160  and  _162
REMARK   72  A    between atoms: _162  and  _163
REMARK   73  A    between atoms: _162  and  _165
REMARK   74  A    between atoms: _165  and  _166
REMARK   75  A    between atoms: _166  and  _167
REMARK   76  A    between atoms: _167  and  _168
REMARK   77  A    between atoms: _177  and  _179
REMARK   78  A    between atoms: _179  and  _180
REMARK   79  A    between atoms: _179  and  _182
REMARK   80  A    between atoms: _182  and  _183
REMARK   81  A    between atoms: _189  and  _191
REMARK   82  A    between atoms: _191  and  _192
REMARK   83  A    between atoms: _191  and  _194
REMARK   84  A    between atoms: _194  and  _195
REMARK   85  A    between atoms: _200  and  _202
REMARK   86  A    between atoms: _202  and  _203
REMARK   87  A    between atoms: _202  and  _205
REMARK   88  A    between atoms: _205  and  _206
REMARK   89  A    between atoms: _206  and  _207
REMARK   90  A    between atoms: _207  and  _208
REMARK   91  A    between atoms: _217  and  _219
REMARK   92  A    between atoms: _219  and  _220
REMARK   93  A    between atoms: _219  and  _222
REMARK   94  A    between atoms: _222  and  _223
REMARK   95  A    between atoms: _228  and  _230
REMARK   96  A    between atoms: _230  and  _231
REMARK   97  A    between atoms: _230  and  _233
REMARK   98  A    between atoms: _233  and  _234
REMARK   99  A    between atoms: _244  and  _246
REMARK  100  A    between atoms: _246  and  _247
REMARK  101  A    between atoms: _246  and  _249
REMARK  102  A    between atoms: _249  and  _250
REMARK  103  A    between atoms: _252  and  _254
REMARK  104  A    between atoms: _254  and  _255
REMARK  105  A    between atoms: _254  and  _257
REMARK  106  A    between atoms: _257  and  _258
REMARK  107  A    between atoms: _260  and  _262
REMARK  108  A    between atoms: _262  and  _263
REMARK  109  A    between atoms: _262  and  _265
REMARK  110  A    between atoms: _265  and  _266
REMARK  111  A    between atoms: _268  and  _270
REMARK  112  A    between atoms: _270  and  _271
REMARK  113  A    between atoms: _273  and  _275
REMARK  114  A    between atoms: _275  and  _276
REMARK  115  A    between atoms: _275  and  _278
REMARK  116  A    between atoms: _278  and  _279
REMARK  117  A    between atoms: _282  and  _284
REMARK  118  A    between atoms: _284  and  _285
REMARK  119  A    between atoms: _284  and  _287
REMARK  120  A    between atoms: _287  and  _288
REMARK  121  A    between atoms: _298  and  _300
REMARK  122  A    between atoms: _300  and  _301
REMARK  123  A    between atoms: _300  and  _303
REMARK  124  A    between atoms: _303  and  _304
REMARK  125  A    between atoms: _304  and  _305
REMARK  126  A    between atoms: _307  and  _309
REMARK  127  A    between atoms: _309  and  _310
REMARK  128  A    between atoms: _309  and  _312
REMARK  129  A    between atoms: _312  and  _313
REMARK  130  A    between atoms: _315  and  _317
REMARK  131  A    between atoms: _317  and  _318
REMARK  132  A    between atoms: _317  and  _320
REMARK  133  A    between atoms: _323  and  _325
REMARK  134  A    between atoms: _325  and  _326
REMARK  135  A    between atoms: _325  and  _328
REMARK  136  A    between atoms: _328  and  _329
REMARK  137  A    between atoms: _329  and  _330
REMARK  138  A    between atoms: _330  and  _331
REMARK  139  A    between atoms: _331  and  _332
REMARK  140  A    between atoms: _336  and  _338
REMARK  141  A    between atoms: _338  and  _339
REMARK  142  A    between atoms: _338  and  _341
REMARK  143  A    between atoms: _341  and  _342
REMARK  144  A    between atoms: _347  and  _349
REMARK  145  A    between atoms: _349  and  _350
REMARK  146  A    between atoms: _349  and  _352
REMARK  147  A    between atoms: _352  and  _353
REMARK  148  A    between atoms: _356  and  _358
REMARK  149  A    between atoms: _358  and  _359
REMARK  150  A    between atoms: _358  and  _361
REMARK  151  A    between atoms: _361  and  _362
REMARK  152  A    between atoms: _365  and  _367
REMARK  153  A    between atoms: _367  and  _368
REMARK  154  A    between atoms: _367  and  _370
REMARK  155  A    between atoms: _370  and  _371
REMARK  156  A    between atoms: _376  and  _377
REMARK  157  A    between atoms: _379  and  _381
REMARK  158  A    between atoms: _381  and  _382
REMARK  159  A    between atoms: _384  and  _386
REMARK  160  A    between atoms: _386  and  _387
REMARK  161  A    between atoms: _386  and  _389
REMARK  162  A    between atoms: _389  and  _390
REMARK  163  A    between atoms: _390  and  _391
REMARK  164  A    between atoms: _391  and  _392
REMARK  165  A    between atoms: _392  and  _393
REMARK  166  A    between atoms: _397  and  _399
REMARK  167  A    between atoms: _399  and  _400
REMARK  168  A    between atoms: _399  and  _402
REMARK  169  A    between atoms: _405  and  _407
REMARK  170  A    between atoms: _407  and  _408
REMARK  171  A    between atoms: _407  and  _410
REMARK  172  A    between atoms: _412  and  _414
REMARK  173  A    between atoms: _414  and  _415
REMARK  174  A    between atoms: _417  and  _419
REMARK  175  A    between atoms: _419  and  _420
REMARK  176  A    between atoms: _419  and  _422
REMARK  177  A    between atoms: _422  and  _423
REMARK  178  A    between atoms: _429  and  _431
REMARK  179  A    between atoms: _431  and  _432
REMARK  180  A    between atoms: _431  and  _434
REMARK  181  A    between atoms: _434  and  _435
REMARK  182  A    between atoms: _438  and  _440
REMARK  183  A    between atoms: _440  and  _441
REMARK  184  A    between atoms: _440  and  _443
REMARK  185  A    between atoms: _443  and  _444
REMARK  186  A    between atoms: _447  and  _449
REMARK  187  A    between atoms: _449  and  _450
REMARK  188  A    between atoms: _449  and  _452
REMARK  189  A    between atoms: _452  and  _453
REMARK  190  A    between atoms: _453  and  _454
REMARK  191  A    between atoms: _457  and  _459
REMARK  192  A    between atoms: _459  and  _460
REMARK  193  A    between atoms: _459  and  _462
REMARK  194  A    between atoms: _462  and  _463
REMARK  195  A    between atoms: _466  and  _468
REMARK  196  A    between atoms: _468  and  _469
REMARK  197  A    between atoms: _468  and  _471
REMARK  198  A    between atoms: _473  and  _475
REMARK  199  A    between atoms: _475  and  _476
REMARK  200  A    between atoms: _478  and  _480
REMARK  201  A    between atoms: _480  and  _481
REMARK  202  A    between atoms: _480  and  _483
REMARK  203  A    between atoms: _483  and  _484
REMARK  204  A    between atoms: _487  and  _489
REMARK  205  A    between atoms: _489  and  _490
REMARK  206  A    between atoms: _492  and  _494
REMARK  207  A    between atoms: _494  and  _495
REMARK  208  A    between atoms: _494  and  _497
REMARK  209  A    between atoms: _497  and  _498
REMARK  210  A    between atoms: _501  and  _503
REMARK  211  A    between atoms: _503  and  _504
REMARK  212  A    between atoms: _503  and  _506
REMARK  213  A    between atoms: _506  and  _507
REMARK  214  A    between atoms: _512  and  _514
REMARK  215  A    between atoms: _514  and  _515
REMARK  216  A    between atoms: _514  and  _517
REMARK  217  A    between atoms: _517  and  _518
REMARK  218  A    between atoms: _521  and  _523
REMARK  219  A    between atoms: _523  and  _524
REMARK  220  A    between atoms: _523  and  _526
REMARK  221  A    between atoms: _526  and  _527
REMARK  222  A    between atoms: _527  and  _528
REMARK  223  A    between atoms: _533  and  _535
REMARK  224  A    between atoms: _535  and  _536
REMARK  225  A    between atoms: _535  and  _538
REMARK  226  A    between atoms: _538  and  _539
REMARK  227  A    between atoms: _545  and  _547
REMARK  228  A    between atoms: _547  and  _548
REMARK  229  A    between atoms: _547  and  _550
REMARK  230  A    between atoms: _550  and  _551
REMARK  231  A    between atoms: _554  and  _556
REMARK  232  A    between atoms: _556  and  _557
REMARK  233  A    between atoms: _556  and  _559
REMARK  234  A    between atoms: _559  and  _560
REMARK  235  A    between atoms: _562  and  _564
REMARK  236  A    between atoms: _564  and  _565
REMARK  237  A    between atoms: _564  and  _567
REMARK  238  A    between atoms: _567  and  _568
REMARK  239  A    between atoms: _571  and  _573
REMARK  240  A    between atoms: _573  and  _574
REMARK  241  A    between atoms: _573  and  _576
REMARK  242  A    between atoms: _576  and  _577
REMARK  243  A    between atoms: _577  and  _578
REMARK  244  A    between atoms: _578  and  _579
REMARK  245  A    between atoms: _588  and  _590
REMARK  246  A    between atoms: _590  and  _591
REMARK  247  A    between atoms: _590  and  _593
REMARK  248  A    between atoms: _593  and  _594
REMARK  249  A    between atoms: _594  and  _595
REMARK  250  A    between atoms: _595  and  _596
REMARK  251  A    between atoms: _605  and  _607
REMARK  252  A    between atoms: _607  and  _608
REMARK  253  A    between atoms: _611  and  _613
REMARK  254  A    between atoms: _613  and  _614
REMARK  255  A    between atoms: _613  and  _616
REMARK  256  A    between atoms: _616  and  _617
REMARK  257  A    between atoms: _620  and  _622
REMARK  258  A    between atoms: _622  and  _623
REMARK  259  A    between atoms: _622  and  _625
REMARK  260  A    between atoms: _625  and  _626
REMARK  261  A    between atoms: _628  and  _630
REMARK  262  A    between atoms: _630  and  _631
REMARK  263  A    between atoms: _630  and  _633
REMARK  264  A    between atoms: _633  and  _634
REMARK  265  A    between atoms: _637  and  _639
REMARK  266  A    between atoms: _639  and  _640
REMARK  267  A    between atoms: _639  and  _642
REMARK  268  A    between atoms: _642  and  _643
REMARK  269  A    between atoms: _646  and  _648
REMARK  270  A    between atoms: _648  and  _649
REMARK  271  A    between atoms: _648  and  _651
REMARK  272  A    between atoms: _651  and  _652
REMARK  273  A    between atoms: _655  and  _657
REMARK  274  A    between atoms: _657  and  _658
REMARK  275  A    between atoms: _657  and  _660
REMARK  276  A    between atoms: _660  and  _661
REMARK                            x       y       z     vdW  Elec       q    Type
REMARK                         _______ _______ _______ _____ _____    ______ ____
ROOT
ATOM      1  CG  LYS A   1      49.688  22.618   9.441  0.00  0.00    -0.000 C 
ENDROOT
BRANCH   1   2
ATOM      2  CB  LYS A   1      48.294  23.191   9.900  0.00  0.00    +0.025 C 
BRANCH   2   3
ATOM      3  CA  LYS A   1      47.165  22.583   9.119  0.00  0.00    +0.133 C 
BRANCH   3   4
ATOM      4  N   LYS A   1      45.921  22.972   9.690  0.00  0.00    -0.239 NA
ATOM      5  H   LYS A   1      45.830  22.948  10.726  0.00  0.00    +0.142 HD
ENDBRANCH   3   4
BRANCH   3   6
ATOM      6  C   LYS A   1      47.352  21.050   9.053  0.00  0.00    +0.224 C 
ATOM      7  O   LYS A   1      47.792  20.407  10.009  0.00  0.00    -0.287 OA
ENDBRANCH   3   6
ENDBRANCH   2   3
ENDBRANCH   1   2
BRANCH   1   8
ATOM      8  CD  LYS A   1      50.800  23.403  10.050  0.00  0.00    -0.024 C 
BRANCH   8   9
ATOM      9  CE  LYS A   1      51.832  22.421  10.435  0.00  0.00    -0.086 C 
BRANCH   9  10
ATOM     10  NZ  LYS A   1      52.869  23.195  11.122  0.00  0.00    +0.380 N 
ATOM     11  HZ1 LYS A   1      52.457  23.661  11.955  0.00  0.00    -0.089 HD
ATOM     12  HZ2 LYS A   1      53.634  22.557  11.423  0.00  0.00    -0.089 HD
ATOM     13  HZ3 LYS A   1      53.250  23.914  10.474  0.00  0.00    -0.089 HD
ENDBRANCH   9  10
ENDBRANCH   8   9
ENDBRANCH   1   8
TORSDOF 7
REMARK  Name = ../refined-set-2016/4dq2/4dq2_pocket.pdb
REMARK  276 active torsions:
REMARK  status: ('A' for Active; 'I' for Inactive)
REMARK    1  A    between atoms: _1  and  _3
REMARK    2  A    between atoms: _3  and  _4
REMARK    3  A    between atoms: _3  and  _6
REMARK    4  A    between atoms: _6  and  _7
REMARK    5  A    between atoms: _10  and  _12
REMARK    6  A    between atoms: _12  and  _13
REMARK    7  A    between atoms: _12  and  _15
REMARK    8  A    between atoms: _15  and  _16
REMARK    9  A    between atoms: _19  and  _21
REMARK   10  A    between atoms: _21  and  _22
REMARK   11  A    between atoms: _21  and  _24
REMARK   12  A    between atoms: _24  and  _25
REMARK   13  A    between atoms: _27  and  _29
REMARK   14  A    between atoms: _29  and  _30
REMARK   15  A    between atoms: _29  and  _32
REMARK   16  A    between atoms: _32  and  _33
REMARK   17  A    between atoms: _36  and  _38
REMARK   18  A    between atoms: _38  and  _39
REMARK   19  A    between atoms: _38  and  _41
REMARK   20  A    between atoms: _41  and  _42
REMARK   21  A    between atoms: _42  and  _43
REMARK   22  A    between atoms: _48  and  _50
REMARK   23  A    between atoms: _50  and  _51
REMARK   24  A    between atoms: _50  and  _53
REMARK   25  A    between atoms: _53  and  _54
REMARK   26  A    between atoms: _57  and  _59
REMARK   27  A    between atoms: _59  and  _60
REMARK   28  A    between atoms: _63  and  _65
REMARK   29  A    between atoms: _65  and  _66
REMARK   30  A    between atoms: _69  and  _71
REMARK   31  A    between atoms: _71  and  _72
REMARK   32  A    between atoms: _71  and  _74
REMARK   33  A    between atoms: _74  and  _75
REMARK   34  A    between atoms: _75  and  _76
REMARK   35  A    between atoms: _76  and  _77
REMARK   36  A    between atoms: _77  and  _78
REMARK   37  A    between atoms: _82  and  _84
REMARK   38  A    between atoms: _84  and  _85
REMARK   39  A    between atoms: _84  and  _87
REMARK   40  A    between atoms: _87  and  _88
REMARK   41  A    between atoms: _91  and  _93
REMARK   42  A    between atoms: _93  and  _94
REMARK   43  A    between atoms: _93  and  _96
REMARK   44  A    between atoms: _96  and  _97
REMARK   45  A    between atoms: _99  and  _101
REMARK   46  A    between atoms: _101  and  _102
REMARK   47  A    between atoms: _101  and  _104
REMARK   48  A    between atoms: _104  and  _105
REMARK   49  A    between atoms: _105  and  _106
REMARK   50  A    between atoms: _111  and  _113
REMARK   51  A    between atoms: _113  and  _114
REMARK   52  A    between atoms: _113  and  _116
REMARK   53  A    between atoms: _116  and  _117
REMARK   54  A    between atoms: _120  and  _122
REMARK   55  A    between atoms: _122  and  _123
REMARK   56  A    between atoms: _122  and  _125
REMARK   57  A    between atoms: _125  and  _126
REMARK   58  A    between atoms: _126  and  _127
REMARK   59  A    between atoms: _127  and  _128
REMARK   60  A    between atoms: _128  and  _129
REMARK   61  A    between atoms: _133  and  _135
REMARK   62  A    between atoms: _135  and  _136
REMARK   63  A    between atoms: _138  and  _140
REMARK   64  A    between atoms: _140  and  _141
REMARK   65  A    between atoms: _140  and  _143
REMARK   66  A    between atoms: _143  and  _144
REMARK   67  A    between atoms: _144  and  _145
REMARK   68  A    between atoms: _145  and  _146
REMARK   69  A    between atoms: _155  and  _157
REMARK   70  A    between atoms: _157  and  _158
REMARK   71  A    between atoms: _160  and  _162
REMARK   72  A    between atoms: _162  and  _163
REMARK   73  A    between atoms: _162  and  _165
REMARK   74  A    between atoms: _165  and  _166
REMARK   75  A    between atoms: _166  and  _167
REMARK   76  A    between atoms: _167  and  _168
REMARK   77  A    between atoms: _177  and  _179
REMARK   78  A    between atoms: _179  and  _180
REMARK   79  A    between atoms: _179  and  _182
REMARK   80  A    between atoms: _182  and  _183
REMARK   81  A    between atoms: _189  and  _191
REMARK   82  A    between atoms: _191  and  _192
REMARK   83  A    between atoms: _191  and  _194
REMARK   84  A    between atoms: _194  and  _195
REMARK   85  A    between atoms: _200  and  _202
REMARK   86  A    between atoms: _202  and  _203
REMARK   87  A    between atoms: _202  and  _205
REMARK   88  A    between atoms: _205  and  _206
REMARK   89  A    between atoms: _206  and  _207
REMARK   90  A    between atoms: _207  and  _208
REMARK   91  A    between atoms: _217  and  _219
REMARK   92  A    between atoms: _219  and  _220
REMARK   93  A    between atoms: _219  and  _222
REMARK   94  A    between atoms: _222  and  _223
REMARK   95  A    between atoms: _228  and  _230
REMARK   96  A    between atoms: _230  and  _231
REMARK   97  A    between atoms: _230  and  _233
REMARK   98  A    between atoms: _233  and  _234
REMARK   99  A    between atoms: _244  and  _246
REMARK  100  A    between atoms: _246  and  _247
REMARK  101  A    between atoms: _246  and  _249
REMARK  102  A    between atoms: _249  and  _250
REMARK  103  A    between atoms: _252  and  _254
REMARK  104  A    between atoms: _254  and  _255
REMARK  105  A    between atoms: _254  and  _257
REMARK  106  A    between atoms: _257  and  _258
REMARK  107  A    between atoms: _260  and  _262
REMARK  108  A    between atoms: _262  and  _263
REMARK  109  A    between atoms: _262  and  _265
REMARK  110  A    between atoms: _265  and  _266
REMARK  111  A    between atoms: _268  and  _270
REMARK  112  A    between atoms: _270  and  _271
REMARK  113  A    between atoms: _273  and  _275
REMARK  114  A    between atoms: _275  and  _276
REMARK  115  A    between atoms: _275  and  _278
REMARK  116  A    between atoms: _278  and  _279
REMARK  117  A    between atoms: _282  and  _284
REMARK  118  A    between atoms: _284  and  _285
REMARK  119  A    between atoms: _284  and  _287
REMARK  120  A    between atoms: _287  and  _288
REMARK  121  A    between atoms: _298  and  _300
REMARK  122  A    between atoms: _300  and  _301
REMARK  123  A    between atoms: _300  and  _303
REMARK  124  A    between atoms: _303  and  _304
REMARK  125  A    between atoms: _304  and  _305
REMARK  126  A    between atoms: _307  and  _309
REMARK  127  A    between atoms: _309  and  _310
REMARK  128  A    between atoms: _309  and  _312
REMARK  129  A    between atoms: _312  and  _313
REMARK  130  A    between atoms: _315  and  _317
REMARK  131  A    between atoms: _317  and  _318
REMARK  132  A    between atoms: _317  and  _320
REMARK  133  A    between atoms: _323  and  _325
REMARK  134  A    between atoms: _325  and  _326
REMARK  135  A    between atoms: _325  and  _328
REMARK  136  A    between atoms: _328  and  _329
REMARK  137  A    between atoms: _329  and  _330
REMARK  138  A    between atoms: _330  and  _331
REMARK  139  A    between atoms: _331  and  _332
REMARK  140  A    between atoms: _336  and  _338
REMARK  141  A    between atoms: _338  and  _339
REMARK  142  A    between atoms: _338  and  _341
REMARK  143  A    between atoms: _341  and  _342
REMARK  144  A    between atoms: _347  and  _349
REMARK  145  A    between atoms: _349  and  _350
REMARK  146  A    between atoms: _349  and  _352
REMARK  147  A    between atoms: _352  and  _353
REMARK  148  A    between atoms: _356  and  _358
REMARK  149  A    between atoms: _358  and  _359
REMARK  150  A    between atoms: _358  and  _361
REMARK  151  A    between atoms: _361  and  _362
REMARK  152  A    between atoms: _365  and  _367
REMARK  153  A    between atoms: _367  and  _368
REMARK  154  A    between atoms: _367  and  _370
REMARK  155  A    between atoms: _370  and  _371
REMARK  156  A    between atoms: _376  and  _377
REMARK  157  A    between atoms: _379  and  _381
REMARK  158  A    between atoms: _381  and  _382
REMARK  159  A    between atoms: _384  and  _386
REMARK  160  A    between atoms: _386  and  _387
REMARK  161  A    between atoms: _386  and  _389
REMARK  162  A    between atoms: _389  and  _390
REMARK  163  A    between atoms: _390  and  _391
REMARK  164  A    between atoms: _391  and  _392
REMARK  165  A    between atoms: _392  and  _393
REMARK  166  A    between atoms: _397  and  _399
REMARK  167  A    between atoms: _399  and  _400
REMARK  168  A    between atoms: _399  and  _402
REMARK  169  A    between atoms: _405  and  _407
REMARK  170  A    between atoms: _407  and  _408
REMARK  171  A    between atoms: _407  and  _410
REMARK  172  A    between atoms: _412  and  _414
REMARK  173  A    between atoms: _414  and  _415
REMARK  174  A    between atoms: _417  and  _419
REMARK  175  A    between atoms: _419  and  _420
REMARK  176  A    between atoms: _419  and  _422
REMARK  177  A    between atoms: _422  and  _423
REMARK  178  A    between atoms: _429  and  _431
REMARK  179  A    between atoms: _431  and  _432
REMARK  180  A    between atoms: _431  and  _434
REMARK  181  A    between atoms: _434  and  _435
REMARK  182  A    between atoms: _438  and  _440
REMARK  183  A    between atoms: _440  and  _441
REMARK  184  A    between atoms: _440  and  _443
REMARK  185  A    between atoms: _443  and  _444
REMARK  186  A    between atoms: _447  and  _449
REMARK  187  A    between atoms: _449  and  _450
REMARK  188  A    between atoms: _449  and  _452
REMARK  189  A    between atoms: _452  and  _453
REMARK  190  A    between atoms: _453  and  _454
REMARK  191  A    between atoms: _457  and  _459
REMARK  192  A    between atoms: _459  and  _460
REMARK  193  A    between atoms: _459  and  _462
REMARK  194  A    between atoms: _462  and  _463
REMARK  195  A    between atoms: _466  and  _468
REMARK  196  A    between atoms: _468  and  _469
REMARK  197  A    between atoms: _468  and  _471
REMARK  198  A    between atoms: _473  and  _475
REMARK  199  A    between atoms: _475  and  _476
REMARK  200  A    between atoms: _478  and  _480
REMARK  201  A    between atoms: _480  and  _481
REMARK  202  A    between atoms: _480  and  _483
REMARK  203  A    between atoms: _483  and  _484
REMARK  204  A    between atoms: _487  and  _489
REMARK  205  A    between atoms: _489  and  _490
REMARK  206  A    between atoms: _492  and  _494
REMARK  207  A    between atoms: _494  and  _495
REMARK  208  A    between atoms: _494  and  _497
REMARK  209  A    between atoms: _497  and  _498
REMARK  210  A    between atoms: _501  and  _503
REMARK  211  A    between atoms: _503  and  _504
REMARK  212  A    between atoms: _503  and  _506
REMARK  213  A    between atoms: _506  and  _507
REMARK  214  A    between atoms: _512  and  _514
REMARK  215  A    between atoms: _514  and  _515
REMARK  216  A    between atoms: _514  and  _517
REMARK  217  A    between atoms: _517  and  _518
REMARK  218  A    between atoms: _521  and  _523
REMARK  219  A    between atoms: _523  and  _524
REMARK  220  A    between atoms: _523  and  _526
REMARK  221  A    between atoms: _526  and  _527
REMARK  222  A    between atoms: _527  and  _528
REMARK  223  A    between atoms: _533  and  _535
REMARK  224  A    between atoms: _535  and  _536
REMARK  225  A    between atoms: _535  and  _538
REMARK  226  A    between atoms: _538  and  _539
REMARK  227  A    between atoms: _545  and  _547
REMARK  228  A    between atoms: _547  and  _548
REMARK  229  A    between atoms: _547  and  _550
REMARK  230  A    between atoms: _550  and  _551
REMARK  231  A    between atoms: _554  and  _556
REMARK  232  A    between atoms: _556  and  _557
REMARK  233  A    between atoms: _556  and  _559
REMARK  234  A    between atoms: _559  and  _560
REMARK  235  A    between atoms: _562  and  _564
REMARK  236  A    between atoms: _564  and  _565
REMARK  237  A    between atoms: _564  and  _567
REMARK  238  A    between atoms: _567  and  _568
REMARK  239  A    between atoms: _571  and  _573
REMARK  240  A    between atoms: _573  and  _574
REMARK  241  A    between atoms: _573  and  _576
REMARK  242  A    between atoms: _576  and  _577
REMARK  243  A    between atoms: _577  and  _578
REMARK  244  A    between atoms: _578  and  _579
REMARK  245  A    between atoms: _588  and  _590
REMARK  246  A    between atoms: _590  and  _591
REMARK  247  A    between atoms: _590  and  _593
REMARK  248  A    between atoms: _593  and  _594
REMARK  249  A    between atoms: _594  and  _595
REMARK  250  A    between atoms: _595  and  _596
REMARK  251  A    between atoms: _605  and  _607
REMARK  252  A    between atoms: _607  and  _608
REMARK  253  A    between atoms: _611  and  _613
REMARK  254  A    between atoms: _613  and  _614
REMARK  255  A    between atoms: _613  and  _616
REMARK  256  A    between atoms: _616  and  _617
REMARK  257  A    between atoms: _620  and  _622
REMARK  258  A    between atoms: _622  and  _623
REMARK  259  A    between atoms: _622  and  _625
REMARK  260  A    between atoms: _625  and  _626
REMARK  261  A    between atoms: _628  and  _630
REMARK  262  A    between atoms: _630  and  _631
REMARK  263  A    between atoms: _630  and  _633
REMARK  264  A    between atoms: _633  and  _634
REMARK  265  A    between atoms: _637  and  _639
REMARK  266  A    between atoms: _639  and  _640
REMARK  267  A    between atoms: _639  and  _642
REMARK  268  A    between atoms: _642  and  _643
REMARK  269  A    between atoms: _646  and  _648
REMARK  270  A    between atoms: _648  and  _649
REMARK  271  A    between atoms: _648  and  _651
REMARK  272  A    between atoms: _651  and  _652
REMARK  273  A    between atoms: _655  and  _657
REMARK  274  A    between atoms: _657  and  _658
REMARK  275  A    between atoms: _657  and  _660
REMARK  276  A    between atoms: _660  and  _661
REMARK                            x       y       z     vdW  Elec       q    Type
REMARK                         _______ _______ _______ _____ _____    ______ ____
ROOT
ATOM      1  C   ASP A   2      46.105  22.152  13.428  0.00  0.00    +0.241 C 
ATOM      2  N   ILE A   3      45.739  23.052  14.331  0.00  0.00    -0.297 N 
ATOM      3  H   ILE A   3      46.194  23.023  15.266  0.00  0.00    +0.150 HD
ATOM      4  O   ASP A   2      45.606  22.052  12.299  0.00  0.00    -0.273 OA
ENDROOT
BRANCH   2   5
ATOM      5  CA  ILE A   3      44.760  24.054  14.093  0.00  0.00    +0.149 C 
BRANCH   5   6
ATOM      6  C   ILE A   3      45.456  25.381  14.423  0.00  0.00    +0.241 C 
ATOM      7  O   ILE A   3      46.038  25.517  15.519  0.00  0.00    -0.273 OA
ATOM      8  N   TYR A   4      45.363  26.346  13.482  0.00  0.00    -0.298 N 
ATOM      9  H   TYR A   4      44.838  26.126  12.612  0.00  0.00    +0.150 HD
BRANCH   8  10
ATOM     10  CA  TYR A   4      45.951  27.678  13.605  0.00  0.00    +0.141 C 
BRANCH  10  11
ATOM     11  C   TYR A   4      44.914  28.793  13.564  0.00  0.00    +0.227 C 
ATOM     12  O   TYR A   4      43.845  28.683  12.899  0.00  0.00    -0.286 OA
ENDBRANCH  10  11
BRANCH  10  13
ATOM     13  CB  TYR A   4      46.910  27.897  12.464  0.00  0.00    +0.054 C 
BRANCH  13  14
ATOM     14  CG  TYR A   4      48.253  27.229  12.655  0.00  0.00    -0.020 A 
ATOM     15  CD2 TYR A   4      49.399  27.986  12.959  0.00  0.00    -0.001 A 
ATOM     16  CE2 TYR A   4      50.610  27.380  13.147  0.00  0.00    +0.036 A 
ATOM     17  CZ  TYR A   4      50.705  25.985  13.036  0.00  0.00    +0.134 A 
ATOM     18  CE1 TYR A   4      49.589  25.225  12.727  0.00  0.00    +0.036 A 
ATOM     19  CD1 TYR A   4      48.379  25.848  12.533  0.00  0.00    -0.001 A 
BRANCH  17  20
ATOM     20  OH  TYR A   4      51.927  25.347  13.184  0.00  0.00    -0.506 OA
ATOM     21  HH  TYR A   4      51.804  24.371  13.074  0.00  0.00    +0.292 HD
ENDBRANCH  17  20
ENDBRANCH  13  14
ENDBRANCH  10  13
ENDBRANCH   8  10
ENDBRANCH   5   6
BRANCH   5  22
ATOM     22  CB  ILE A   3      43.575  23.989  15.034  0.00  0.00    +0.027 C 
ATOM     23  CG2 ILE A   3      42.606  25.087  14.666  0.00  0.00    +0.002 C 
BRANCH  22  24
ATOM     24  CG1 ILE A   3      42.843  22.624  15.117  0.00  0.00    +0.002 C 
ATOM     25  CD1 ILE A   3      42.540  21.932  13.834  0.00  0.00    +0.000 C 
ENDBRANCH  22  24
ENDBRANCH   5  22
ENDBRANCH   2   5
BRANCH   1  26
ATOM     26  CA  ASP A   2      47.144  21.169  13.936  0.00  0.00    +0.160 C 
BRANCH  26  29
ATOM     27  C   ASN A   1      47.432  18.816  13.778  0.00  0.00    +0.239 C 
ATOM     28  O   ASN A   1      47.619  18.765  14.998  0.00  0.00    -0.274 OA
ATOM     29  N   ASP A   2      47.225  19.965  13.166  0.00  0.00    -0.297 N 
ATOM     30  H   ASP A   2      47.121  19.997  12.132  0.00  0.00    +0.150 HD
BRANCH  27  31
ATOM     31  CA  ASN A   1      47.517  17.520  12.931  0.00  0.00    +0.154 C 
BRANCH  31  32
ATOM     32  N   ASN A   1      47.587  17.607  11.464  0.00  0.00    -0.238 NA
ATOM     33  H   ASN A   1      48.155  18.350  11.009  0.00  0.00    +0.142 HD
ENDBRANCH  31  32
BRANCH  31  34
ATOM     34  CB  ASN A   1      48.712  16.697  13.427  0.00  0.00    +0.111 C 
BRANCH  34  35
ATOM     35  CG  ASN A   1      48.567  15.237  13.113  0.00  0.00    +0.221 C 
ATOM     36  OD1 ASN A   1      47.821  14.520  13.801  0.00  0.00    -0.275 OA
ATOM     37  ND2 ASN A   1      49.261  14.763  12.095  0.00  0.00    -0.329 N 
ATOM     38 HD21 ASN A   1      49.194  13.756  11.844  0.00  0.00    +0.145 HD
ATOM     39 HD22 ASN A   1      49.874  15.397  11.544  0.00  0.00    +0.145 HD
ENDBRANCH  34  35
ENDBRANCH  31  34
ENDBRANCH  27  31
ENDBRANCH  26  29
BRANCH  26  40
ATOM     40  CB  ASP A   2      48.490  21.874  14.080  0.00  0.00    +0.143 C 
BRANCH  40  41
ATOM     41  CG  ASP A   2      49.636  20.916  14.299  0.00  0.00    +0.367 C 
ATOM     42  OD2 ASP A   2      50.084  20.725  15.489  0.00  0.00    -0.246 OA
ATOM     43  OD1 ASP A   2      50.111  20.369  13.266  0.00  0.00    -0.246 OA
ENDBRANCH  40  41
ENDBRANCH  26  40
ENDBRANCH   1  26
TORSDOF 17
REMARK  Name = ../refined-set-2016/4dq2/4dq2_pocket.pdb
REMARK  276 active torsions:
REMARK  status: ('A' for Active; 'I' for Inactive)
REMARK    1  A    between atoms: _1  and  _3
REMARK    2  A    between atoms: _3  and  _4
REMARK    3  A    between atoms: _3  and  _6
REMARK    4  A    between atoms: _6  and  _7
REMARK    5  A    between atoms: _10  and  _12
REMARK    6  A    between atoms: _12  and  _13
REMARK    7  A    between atoms: _12  and  _15
REMARK    8  A    between atoms: _15  and  _16
REMARK    9  A    between atoms: _19  and  _21
REMARK   10  A    between atoms: _21  and  _22
REMARK   11  A    between atoms: _21  and  _24
REMARK   12  A    between atoms: _24  and  _25
REMARK   13  A    between atoms: _27  and  _29
REMARK   14  A    between atoms: _29  and  _30
REMARK   15  A    between atoms: _29  and  _32
REMARK   16  A    between atoms: _32  and  _33
REMARK   17  A    between atoms: _36  and  _38
REMARK   18  A    between atoms: _38  and  _39
REMARK   19  A    between atoms: _38  and  _41
REMARK   20  A    between atoms: _41  and  _42
REMARK   21  A    between atoms: _42  and  _43
REMARK   22  A    between atoms: _48  and  _50
REMARK   23  A    between atoms: _50  and  _51
REMARK   24  A    between atoms: _50  and  _53
REMARK   25  A    between atoms: _53  and  _54
REMARK   26  A    between atoms: _57  and  _59
REMARK   27  A    between atoms: _59  and  _60
REMARK   28  A    between atoms: _63  and  _65
REMARK   29  A    between atoms: _65  and  _66
REMARK   30  A    between atoms: _69  and  _71
REMARK   31  A    between atoms: _71  and  _72
REMARK   32  A    between atoms: _71  and  _74
REMARK   33  A    between atoms: _74  and  _75
REMARK   34  A    between atoms: _75  and  _76
REMARK   35  A    between atoms: _76  and  _77
REMARK   36  A    between atoms: _77  and  _78
REMARK   37  A    between atoms: _82  and  _84
REMARK   38  A    between atoms: _84  and  _85
REMARK   39  A    between atoms: _84  and  _87
REMARK   40  A    between atoms: _87  and  _88
REMARK   41  A    between atoms: _91  and  _93
REMARK   42  A    between atoms: _93  and  _94
REMARK   43  A    between atoms: _93  and  _96
REMARK   44  A    between atoms: _96  and  _97
REMARK   45  A    between atoms: _99  and  _101
REMARK   46  A    between atoms: _101  and  _102
REMARK   47  A    between atoms: _101  and  _104
REMARK   48  A    between atoms: _104  and  _105
REMARK   49  A    between atoms: _105  and  _106
REMARK   50  A    between atoms: _111  and  _113
REMARK   51  A    between atoms: _113  and  _114
REMARK   52  A    between atoms: _113  and  _116
REMARK   53  A    between atoms: _116  and  _117
REMARK   54  A    between atoms: _120  and  _122
REMARK   55  A    between atoms: _122  and  _123
REMARK   56  A    between atoms: _122  and  _125
REMARK   57  A    between atoms: _125  and  _126
REMARK   58  A    between atoms: _126  and  _127
REMARK   59  A    between atoms: _127  and  _128
REMARK   60  A    between atoms: _128  and  _129
REMARK   61  A    between atoms: _133  and  _135
REMARK   62  A    between atoms: _135  and  _136
REMARK   63  A    between atoms: _138  and  _140
REMARK   64  A    between atoms: _140  and  _141
REMARK   65  A    between atoms: _140  and  _143
REMARK   66  A    between atoms: _143  and  _144
REMARK   67  A    between atoms: _144  and  _145
REMARK   68  A    between atoms: _145  and  _146
REMARK   69  A    between atoms: _155  and  _157
REMARK   70  A    between atoms: _157  and  _158
REMARK   71  A    between atoms: _160  and  _162
REMARK   72  A    between atoms: _162  and  _163
REMARK   73  A    between atoms: _162  and  _165
REMARK   74  A    between atoms: _165  and  _166
REMARK   75  A    between atoms: _166  and  _167
REMARK   76  A    between atoms: _167  and  _168
REMARK   77  A    between atoms: _177  and  _179
REMARK   78  A    between atoms: _179  and  _180
REMARK   79  A    between atoms: _179  and  _182
REMARK   80  A    between atoms: _182  and  _183
REMARK   81  A    between atoms: _189  and  _191
REMARK   82  A    between atoms: _191  and  _192
REMARK   83  A    between atoms: _191  and  _194
REMARK   84  A    between atoms: _194  and  _195
REMARK   85  A    between atoms: _200  and  _202
REMARK   86  A    between atoms: _202  and  _203
REMARK   87  A    between atoms: _202  and  _205
REMARK   88  A    between atoms: _205  and  _206
REMARK   89  A    between atoms: _206  and  _207
REMARK   90  A    between atoms: _207  and  _208
REMARK   91  A    between atoms: _217  and  _219
REMARK   92  A    between atoms: _219  and  _220
REMARK   93  A    between atoms: _219  and  _222
REMARK   94  A    between atoms: _222  and  _223
REMARK   95  A    between atoms: _228  and  _230
REMARK   96  A    between atoms: _230  and  _231
REMARK   97  A    between atoms: _230  and  _233
REMARK   98  A    between atoms: _233  and  _234
REMARK   99  A    between atoms: _244  and  _246
REMARK  100  A    between atoms: _246  and  _247
REMARK  101  A    between atoms: _246  and  _249
REMARK  102  A    between atoms: _249  and  _250
REMARK  103  A    between atoms: _252  and  _254
REMARK  104  A    between atoms: _254  and  _255
REMARK  105  A    between atoms: _254  and  _257
REMARK  106  A    between atoms: _257  and  _258
REMARK  107  A    between atoms: _260  and  _262
REMARK  108  A    between atoms: _262  and  _263
REMARK  109  A    between atoms: _262  and  _265
REMARK  110  A    between atoms: _265  and  _266
REMARK  111  A    between atoms: _268  and  _270
REMARK  112  A    between atoms: _270  and  _271
REMARK  113  A    between atoms: _273  and  _275
REMARK  114  A    between atoms: _275  and  _276
REMARK  115  A    between atoms: _275  and  _278
REMARK  116  A    between atoms: _278  and  _279
REMARK  117  A    between atoms: _282  and  _284
REMARK  118  A    between atoms: _284  and  _285
REMARK  119  A    between atoms: _284  and  _287
REMARK  120  A    between atoms: _287  and  _288
REMARK  121  A    between atoms: _298  and  _300
REMARK  122  A    between atoms: _300  and  _301
REMARK  123  A    between atoms: _300  and  _303
REMARK  124  A    between atoms: _303  and  _304
REMARK  125  A    between atoms: _304  and  _305
REMARK  126  A    between atoms: _307  and  _309
REMARK  127  A    between atoms: _309  and  _310
REMARK  128  A    between atoms: _309  and  _312
REMARK  129  A    between atoms: _312  and  _313
REMARK  130  A    between atoms: _315  and  _317
REMARK  131  A    between atoms: _317  and  _318
REMARK  132  A    between atoms: _317  and  _320
REMARK  133  A    between atoms: _323  and  _325
REMARK  134  A    between atoms: _325  and  _326
REMARK  135  A    between atoms: _325  and  _328
REMARK  136  A    between atoms: _328  and  _329
REMARK  137  A    between atoms: _329  and  _330
REMARK  138  A    between atoms: _330  and  _331
REMARK  139  A    between atoms: _331  and  _332
REMARK  140  A    between atoms: _336  and  _338
REMARK  141  A    between atoms: _338  and  _339
REMARK  142  A    between atoms: _338  and  _341
REMARK  143  A    between atoms: _341  and  _342
REMARK  144  A    between atoms: _347  and  _349
REMARK  145  A    between atoms: _349  and  _350
REMARK  146  A    between atoms: _349  and  _352
REMARK  147  A    between atoms: _352  and  _353
REMARK  148  A    between atoms: _356  and  _358
REMARK  149  A    between atoms: _358  and  _359
REMARK  150  A    between atoms: _358  and  _361
REMARK  151  A    between atoms: _361  and  _362
REMARK  152  A    between atoms: _365  and  _367
REMARK  153  A    between atoms: _367  and  _368
REMARK  154  A    between atoms: _367  and  _370
REMARK  155  A    between atoms: _370  and  _371
REMARK  156  A    between atoms: _376  and  _377
REMARK  157  A    between atoms: _379  and  _381
REMARK  158  A    between atoms: _381  and  _382
REMARK  159  A    between atoms: _384  and  _386
REMARK  160  A    between atoms: _386  and  _387
REMARK  161  A    between atoms: _386  and  _389
REMARK  162  A    between atoms: _389  and  _390
REMARK  163  A    between atoms: _390  and  _391
REMARK  164  A    between atoms: _391  and  _392
REMARK  165  A    between atoms: _392  and  _393
REMARK  166  A    between atoms: _397  and  _399
REMARK  167  A    between atoms: _399  and  _400
REMARK  168  A    between atoms: _399  and  _402
REMARK  169  A    between atoms: _405  and  _407
REMARK  170  A    between atoms: _407  and  _408
REMARK  171  A    between atoms: _407  and  _410
REMARK  172  A    between atoms: _412  and  _414
REMARK  173  A    between atoms: _414  and  _415
REMARK  174  A    between atoms: _417  and  _419
REMARK  175  A    between atoms: _419  and  _420
REMARK  176  A    between atoms: _419  and  _422
REMARK  177  A    between atoms: _422  and  _423
REMARK  178  A    between atoms: _429  and  _431
REMARK  179  A    between atoms: _431  and  _432
REMARK  180  A    between atoms: _431  and  _434
REMARK  181  A    between atoms: _434  and  _435
REMARK  182  A    between atoms: _438  and  _440
REMARK  183  A    between atoms: _440  and  _441
REMARK  184  A    between atoms: _440  and  _443
REMARK  185  A    between atoms: _443  and  _444
REMARK  186  A    between atoms: _447  and  _449
REMARK  187  A    between atoms: _449  and  _450
REMARK  188  A    between atoms: _449  and  _452
REMARK  189  A    between atoms: _452  and  _453
REMARK  190  A    between atoms: _453  and  _454
REMARK  191  A    between atoms: _457  and  _459
REMARK  192  A    between atoms: _459  and  _460
REMARK  193  A    between atoms: _459  and  _462
REMARK  194  A    between atoms: _462  and  _463
REMARK  195  A    between atoms: _466  and  _468
REMARK  196  A    between atoms: _468  and  _469
REMARK  197  A    between atoms: _468  and  _471
REMARK  198  A    between atoms: _473  and  _475
REMARK  199  A    between atoms: _475  and  _476
REMARK  200  A    between atoms: _478  and  _480
REMARK  201  A    between atoms: _480  and  _481
REMARK  202  A    between atoms: _480  and  _483
REMARK  203  A    between atoms: _483  and  _484
REMARK  204  A    between atoms: _487  and  _489
REMARK  205  A    between atoms: _489  and  _490
REMARK  206  A    between atoms: _492  and  _494
REMARK  207  A    between atoms: _494  and  _495
REMARK  208  A    between atoms: _494  and  _497
REMARK  209  A    between atoms: _497  and  _498
REMARK  210  A    between atoms: _501  and  _503
REMARK  211  A    between atoms: _503  and  _504
REMARK  212  A    between atoms: _503  and  _506
REMARK  213  A    between atoms: _506  and  _507
REMARK  214  A    between atoms: _512  and  _514
REMARK  215  A    between atoms: _514  and  _515
REMARK  216  A    between atoms: _514  and  _517
REMARK  217  A    between atoms: _517  and  _518
REMARK  218  A    between atoms: _521  and  _523
REMARK  219  A    between atoms: _523  and  _524
REMARK  220  A    between atoms: _523  and  _526
REMARK  221  A    between atoms: _526  and  _527
REMARK  222  A    between atoms: _527  and  _528
REMARK  223  A    between atoms: _533  and  _535
REMARK  224  A    between atoms: _535  and  _536
REMARK  225  A    between atoms: _535  and  _538
REMARK  226  A    between atoms: _538  and  _539
REMARK  227  A    between atoms: _545  and  _547
REMARK  228  A    between atoms: _547  and  _548
REMARK  229  A    between atoms: _547  and  _550
REMARK  230  A    between atoms: _550  and  _551
REMARK  231  A    between atoms: _554  and  _556
REMARK  232  A    between atoms: _556  and  _557
REMARK  233  A    between atoms: _556  and  _559
REMARK  234  A    between atoms: _559  and  _560
REMARK  235  A    between atoms: _562  and  _564
REMARK  236  A    between atoms: _564  and  _565
REMARK  237  A    between atoms: _564  and  _567
REMARK  238  A    between atoms: _567  and  _568
REMARK  239  A    between atoms: _571  and  _573
REMARK  240  A    between atoms: _573  and  _574
REMARK  241  A    between atoms: _573  and  _576
REMARK  242  A    between atoms: _576  and  _577
REMARK  243  A    between atoms: _577  and  _578
REMARK  244  A    between atoms: _578  and  _579
REMARK  245  A    between atoms: _588  and  _590
REMARK  246  A    between atoms: _590  and  _591
REMARK  247  A    between atoms: _590  and  _593
REMARK  248  A    between atoms: _593  and  _594
REMARK  249  A    between atoms: _594  and  _595
REMARK  250  A    between atoms: _595  and  _596
REMARK  251  A    between atoms: _605  and  _607
REMARK  252  A    between atoms: _607  and  _608
REMARK  253  A    between atoms: _611  and  _613
REMARK  254  A    between atoms: _613  and  _614
REMARK  255  A    between atoms: _613  and  _616
REMARK  256  A    between atoms: _616  and  _617
REMARK  257  A    between atoms: _620  and  _622
REMARK  258  A    between atoms: _622  and  _623
REMARK  259  A    between atoms: _622  and  _625
REMARK  260  A    between atoms: _625  and  _626
REMARK  261  A    between atoms: _628  and  _630
REMARK  262  A    between atoms: _630  and  _631
REMARK  263  A    between atoms: _630  and  _633
REMARK  264  A    between atoms: _633  and  _634
REMARK  265  A    between atoms: _637  and  _639
REMARK  266  A    between atoms: _639  and  _640
REMARK  267  A    between atoms: _639  and  _642
REMARK  268  A    between atoms: _642  and  _643
REMARK  269  A    between atoms: _646  and  _648
REMARK  270  A    between atoms: _648  and  _649
REMARK  271  A    between atoms: _648  and  _651
REMARK  272  A    between atoms: _651  and  _652
REMARK  273  A    between atoms: _655  and  _657
REMARK  274  A    between atoms: _657  and  _658
REMARK  275  A    between atoms: _657  and  _660
REMARK  276  A    between atoms: _660  and  _661
REMARK                            x       y       z     vdW  Elec       q    Type
REMARK                         _______ _______ _______ _____ _____    ______ ____
ROOT
ATOM      1  C   GLY A   5      46.636  18.797  18.683  0.00  0.00    +0.243 C 
ATOM      2  O   GLY A   5      46.113  18.693  19.828  0.00  0.00    -0.273 OA
ATOM      3  N   PHE A   6      46.493  17.864  17.737  0.00  0.00    -0.297 N 
ATOM      4  H   PHE A   6      46.912  18.010  16.796  0.00  0.00    +0.150 HD
ENDROOT
BRANCH   3   5
ATOM      5  CA  PHE A   6      45.767  16.669  18.015  0.00  0.00    +0.153 C 
BRANCH   5   6
ATOM      6  C   PHE A   6      46.466  15.525  17.309  0.00  0.00    +0.241 C 
ATOM      7  N   LEU A   7      46.174  14.307  17.766  0.00  0.00    -0.297 N 
ATOM      8  H   LEU A   7      45.400  14.180  18.449  0.00  0.00    +0.150 HD
ATOM      9  O   PHE A   6      47.241  15.742  16.377  0.00  0.00    -0.273 OA
BRANCH   7  10
ATOM     10  CA  LEU A   7      46.924  13.177  17.317  0.00  0.00    +0.149 C 
BRANCH  10  11
ATOM     11  C   LEU A   7      46.004  11.968  17.451  0.00  0.00    +0.241 C 
ATOM     12  O   LEU A   7      45.381  11.796  18.491  0.00  0.00    -0.273 OA
ATOM     13  N   THR A   8      45.879  11.151  16.415  0.00  0.00    -0.295 N 
ATOM     14  H   THR A   8      46.434  11.336  15.555  0.00  0.00    +0.150 HD
BRANCH  13  15
ATOM     15  CA  THR A   8      44.997  10.016  16.448  0.00  0.00    +0.176 C 
BRANCH  15  16
ATOM     16  C   THR A   8      45.844   8.760  16.473  0.00  0.00    +0.243 C 
ATOM     17  N   GLU A   9      45.567   7.861  17.423  0.00  0.00    -0.298 N 
ATOM     18  H   GLU A   9      44.766   8.038  18.063  0.00  0.00    +0.150 HD
ATOM     19  O   THR A   8      46.749   8.618  15.669  0.00  0.00    -0.273 OA
BRANCH  17  20
ATOM     20  CA  GLU A   9      46.347   6.643  17.594  0.00  0.00    +0.137 C 
BRANCH  20  21
ATOM     21  C   GLU A   9      45.369   5.520  17.675  0.00  0.00    +0.227 C 
ATOM     22  O   GLU A   9      44.216   5.778  17.828  0.00  0.00    -0.286 OA
ENDBRANCH  20  21
BRANCH  20  23
ATOM     23  CB  GLU A   9      47.192   6.668  18.863  0.00  0.00    +0.039 C 
BRANCH  23  24
ATOM     24  CG  GLU A   9      47.911   7.993  18.986  0.00  0.00    +0.116 C 
BRANCH  24  25
ATOM     25  CD  GLU A   9      49.123   7.913  19.901  0.00  0.00    +0.365 C 
ATOM     26  OE2 GLU A   9      49.006   8.067  21.168  0.00  0.00    -0.246 OA
ATOM     27  OE1 GLU A   9      50.194   7.670  19.319  0.00  0.00    -0.246 OA
ENDBRANCH  24  25
ENDBRANCH  23  24
ENDBRANCH  20  23
ENDBRANCH  17  20
ENDBRANCH  15  16
BRANCH  15  28
ATOM     28  CB  THR A   8      44.129   9.995  15.218  0.00  0.00    +0.137 C 
ATOM     29  CG2 THR A   8      43.159   8.862  15.277  0.00  0.00    +0.034 C 
BRANCH  28  30
ATOM     30  OG1 THR A   8      43.353  11.204  15.158  0.00  0.00    -0.382 OA
ATOM     31  HG1 THR A   8      43.962  11.984  15.120  0.00  0.00    +0.210 HD
ENDBRANCH  28  30
ENDBRANCH  15  28
ENDBRANCH  13  15
ENDBRANCH  10  11
BRANCH  10  32
ATOM     32  CB  LEU A   7      48.098  13.118  18.256  0.00  0.00    +0.029 C 
BRANCH  32  33
ATOM     33  CG  LEU A   7      48.890  11.903  18.492  0.00  0.00    +0.002 C 
ATOM     34  CD2 LEU A   7      49.927  12.352  19.469  0.00  0.00    +0.000 C 
ATOM     35  CD1 LEU A   7      49.582  11.509  17.165  0.00  0.00    +0.000 C 
ENDBRANCH  32  33
ENDBRANCH  10  32
ENDBRANCH   7  10
ENDBRANCH   5   6
BRANCH   5  36
ATOM     36  CB  PHE A   6      44.296  16.793  17.653  0.00  0.00    +0.055 C 
BRANCH  36  37
ATOM     37  CG  PHE A   6      44.062  17.017  16.244  0.00  0.00    -0.020 A 
ATOM     38  CD2 PHE A   6      44.082  18.317  15.734  0.00  0.00    -0.004 A 
ATOM     39  CE2 PHE A   6      43.901  18.583  14.353  0.00  0.00    -0.000 A 
ATOM     40  CZ  PHE A   6      43.646  17.500  13.487  0.00  0.00    -0.000 A 
ATOM     41  CE1 PHE A   6      43.608  16.183  13.999  0.00  0.00    -0.000 A 
ATOM     42  CD1 PHE A   6      43.833  15.945  15.385  0.00  0.00    -0.004 A 
ENDBRANCH  36  37
ENDBRANCH   5  36
ENDBRANCH   3   5
BRANCH   1  43
ATOM     43  CA  GLY A   5      47.427  20.058  18.280  0.00  0.00    +0.176 C 
BRANCH  43  45
ATOM     44  C   CYS A   4      46.422  22.254  18.233  0.00  0.00    +0.242 C 
ATOM     45  N   GLY A   5      46.806  21.191  18.930  0.00  0.00    -0.295 N 
ATOM     46  H   GLY A   5      46.658  21.173  19.959  0.00  0.00    +0.150 HD
ATOM     47  O   CYS A   4      46.733  22.422  17.059  0.00  0.00    -0.273 OA
BRANCH  44  48
ATOM     48  CA  CYS A   4      45.524  23.255  18.949  0.00  0.00    +0.160 C 
BRANCH  48  51
ATOM     49  C   VAL A   3      45.613  25.651  19.427  0.00  0.00    +0.241 C 
ATOM     50  O   VAL A   3      45.234  25.498  20.571  0.00  0.00    -0.273 OA
ATOM     51  N   CYS A   4      45.807  24.626  18.587  0.00  0.00    -0.296 N 
ATOM     52  H   CYS A   4      46.176  24.824  17.635  0.00  0.00    +0.150 HD
BRANCH  49  53
ATOM     53  CA  VAL A   3      45.933  27.052  18.894  0.00  0.00    +0.149 C 
BRANCH  53  56
ATOM     54  C   LYS A   2      48.131  27.230  17.889  0.00  0.00    +0.241 C 
ATOM     55  O   LYS A   2      48.606  27.548  18.924  0.00  0.00    -0.273 OA
ATOM     56  N   VAL A   3      46.837  26.992  17.770  0.00  0.00    -0.297 N 
ATOM     57  H   VAL A   3      46.456  26.753  16.832  0.00  0.00    +0.150 HD
BRANCH  54  58
ATOM     58  CA  LYS A   2      49.037  27.138  16.605  0.00  0.00    +0.149 C 
BRANCH  58  60
ATOM     59  C   GLY A   1      48.839  29.500  16.025  0.00  0.00    +0.240 C 
ATOM     60  N   LYS A   2      49.612  28.462  16.335  0.00  0.00    -0.297 N 
ATOM     61  H   LYS A   2      50.643  28.591  16.387  0.00  0.00    +0.150 HD
ATOM     62  O   GLY A   1      47.615  29.389  15.761  0.00  0.00    -0.274 OA
BRANCH  59  63
ATOM     63  CA  GLY A   1      49.503  30.873  16.046  0.00  0.00    +0.169 C 
BRANCH  63  64
ATOM     64  N   GLY A   1      49.471  31.597  14.764  0.00  0.00    -0.236 NA
ATOM     65  H   GLY A   1      48.637  32.166  14.516  0.00  0.00    +0.142 HD
ENDBRANCH  63  64
ENDBRANCH  59  63
ENDBRANCH  58  60
BRANCH  58  66
ATOM     66  CB  LYS A   2      50.143  26.050  16.769  0.00  0.00    +0.029 C 
BRANCH  66  67
ATOM     67  CG  LYS A   2      49.577  24.607  16.822  0.00  0.00    +0.000 C 
BRANCH  67  68
ATOM     68  CD  LYS A   2      50.558  23.553  17.276  0.00  0.00    -0.024 C 
BRANCH  68  69
ATOM     69  CE  LYS A   2      51.643  23.240  16.211  0.00  0.00    -0.086 C 
BRANCH  69  70
ATOM     70  NZ  LYS A   2      52.389  21.946  16.556  0.00  0.00    +0.380 N 
ATOM     71  HZ1 LYS A   2      52.849  22.049  17.483  0.00  0.00    -0.089 HD
ATOM     72  HZ2 LYS A   2      51.713  21.156  16.589  0.00  0.00    -0.089 HD
ATOM     73  HZ3 LYS A   2      53.109  21.758  15.829  0.00  0.00    -0.089 HD
ENDBRANCH  69  70
ENDBRANCH  68  69
ENDBRANCH  67  68
ENDBRANCH  66  67
ENDBRANCH  58  66
ENDBRANCH  54  58
ENDBRANCH  53  56
BRANCH  53  74
ATOM     74  CB  VAL A   3      44.636  27.846  18.572  0.00  0.00    +0.027 C 
ATOM     75  CG2 VAL A   3      43.830  28.086  19.855  0.00  0.00    +0.002 C 
ATOM     76  CG1 VAL A   3      43.807  27.146  17.488  0.00  0.00    +0.002 C 
ENDBRANCH  53  74
ENDBRANCH  49  53
ENDBRANCH  48  51
BRANCH  48  77
ATOM     77  CB  CYS A   4      44.106  22.922  18.591  0.00  0.00    +0.098 C 
ATOM     78  SG  CYS A   4      43.747  21.155  18.582  0.00  0.00    -0.080 S 
ENDBRANCH  48  77
ENDBRANCH  44  48
ENDBRANCH  43  45
ENDBRANCH   1  43
TORSDOF 34
REMARK  Name = ../refined-set-2016/4dq2/4dq2_pocket.pdb
REMARK  276 active torsions:
REMARK  status: ('A' for Active; 'I' for Inactive)
REMARK    1  A    between atoms: _1  and  _3
REMARK    2  A    between atoms: _3  and  _4
REMARK    3  A    between atoms: _3  and  _6
REMARK    4  A    between atoms: _6  and  _7
REMARK    5  A    between atoms: _10  and  _12
REMARK    6  A    between atoms: _12  and  _13
REMARK    7  A    between atoms: _12  and  _15
REMARK    8  A    between atoms: _15  and  _16
REMARK    9  A    between atoms: _19  and  _21
REMARK   10  A    between atoms: _21  and  _22
REMARK   11  A    between atoms: _21  and  _24
REMARK   12  A    between atoms: _24  and  _25
REMARK   13  A    between atoms: _27  and  _29
REMARK   14  A    between atoms: _29  and  _30
REMARK   15  A    between atoms: _29  and  _32
REMARK   16  A    between atoms: _32  and  _33
REMARK   17  A    between atoms: _36  and  _38
REMARK   18  A    between atoms: _38  and  _39
REMARK   19  A    between atoms: _38  and  _41
REMARK   20  A    between atoms: _41  and  _42
REMARK   21  A    between atoms: _42  and  _43
REMARK   22  A    between atoms: _48  and  _50
REMARK   23  A    between atoms: _50  and  _51
REMARK   24  A    between atoms: _50  and  _53
REMARK   25  A    between atoms: _53  and  _54
REMARK   26  A    between atoms: _57  and  _59
REMARK   27  A    between atoms: _59  and  _60
REMARK   28  A    between atoms: _63  and  _65
REMARK   29  A    between atoms: _65  and  _66
REMARK   30  A    between atoms: _69  and  _71
REMARK   31  A    between atoms: _71  and  _72
REMARK   32  A    between atoms: _71  and  _74
REMARK   33  A    between atoms: _74  and  _75
REMARK   34  A    between atoms: _75  and  _76
REMARK   35  A    between atoms: _76  and  _77
REMARK   36  A    between atoms: _77  and  _78
REMARK   37  A    between atoms: _82  and  _84
REMARK   38  A    between atoms: _84  and  _85
REMARK   39  A    between atoms: _84  and  _87
REMARK   40  A    between atoms: _87  and  _88
REMARK   41  A    between atoms: _91  and  _93
REMARK   42  A    between atoms: _93  and  _94
REMARK   43  A    between atoms: _93  and  _96
REMARK   44  A    between atoms: _96  and  _97
REMARK   45  A    between atoms: _99  and  _101
REMARK   46  A    between atoms: _101  and  _102
REMARK   47  A    between atoms: _101  and  _104
REMARK   48  A    between atoms: _104  and  _105
REMARK   49  A    between atoms: _105  and  _106
REMARK   50  A    between atoms: _111  and  _113
REMARK   51  A    between atoms: _113  and  _114
REMARK   52  A    between atoms: _113  and  _116
REMARK   53  A    between atoms: _116  and  _117
REMARK   54  A    between atoms: _120  and  _122
REMARK   55  A    between atoms: _122  and  _123
REMARK   56  A    between atoms: _122  and  _125
REMARK   57  A    between atoms: _125  and  _126
REMARK   58  A    between atoms: _126  and  _127
REMARK   59  A    between atoms: _127  and  _128
REMARK   60  A    between atoms: _128  and  _129
REMARK   61  A    between atoms: _133  and  _135
REMARK   62  A    between atoms: _135  and  _136
REMARK   63  A    between atoms: _138  and  _140
REMARK   64  A    between atoms: _140  and  _141
REMARK   65  A    between atoms: _140  and  _143
REMARK   66  A    between atoms: _143  and  _144
REMARK   67  A    between atoms: _144  and  _145
REMARK   68  A    between atoms: _145  and  _146
REMARK   69  A    between atoms: _155  and  _157
REMARK   70  A    between atoms: _157  and  _158
REMARK   71  A    between atoms: _160  and  _162
REMARK   72  A    between atoms: _162  and  _163
REMARK   73  A    between atoms: _162  and  _165
REMARK   74  A    between atoms: _165  and  _166
REMARK   75  A    between atoms: _166  and  _167
REMARK   76  A    between atoms: _167  and  _168
REMARK   77  A    between atoms: _177  and  _179
REMARK   78  A    between atoms: _179  and  _180
REMARK   79  A    between atoms: _179  and  _182
REMARK   80  A    between atoms: _182  and  _183
REMARK   81  A    between atoms: _189  and  _191
REMARK   82  A    between atoms: _191  and  _192
REMARK   83  A    between atoms: _191  and  _194
REMARK   84  A    between atoms: _194  and  _195
REMARK   85  A    between atoms: _200  and  _202
REMARK   86  A    between atoms: _202  and  _203
REMARK   87  A    between atoms: _202  and  _205
REMARK   88  A    between atoms: _205  and  _206
REMARK   89  A    between atoms: _206  and  _207
REMARK   90  A    between atoms: _207  and  _208
REMARK   91  A    between atoms: _217  and  _219
REMARK   92  A    between atoms: _219  and  _220
REMARK   93  A    between atoms: _219  and  _222
REMARK   94  A    between atoms: _222  and  _223
REMARK   95  A    between atoms: _228  and  _230
REMARK   96  A    between atoms: _230  and  _231
REMARK   97  A    between atoms: _230  and  _233
REMARK   98  A    between atoms: _233  and  _234
REMARK   99  A    between atoms: _244  and  _246
REMARK  100  A    between atoms: _246  and  _247
REMARK  101  A    between atoms: _246  and  _249
REMARK  102  A    between atoms: _249  and  _250
REMARK  103  A    between atoms: _252  and  _254
REMARK  104  A    between atoms: _254  and  _255
REMARK  105  A    between atoms: _254  and  _257
REMARK  106  A    between atoms: _257  and  _258
REMARK  107  A    between atoms: _260  and  _262
REMARK  108  A    between atoms: _262  and  _263
REMARK  109  A    between atoms: _262  and  _265
REMARK  110  A    between atoms: _265  and  _266
REMARK  111  A    between atoms: _268  and  _270
REMARK  112  A    between atoms: _270  and  _271
REMARK  113  A    between atoms: _273  and  _275
REMARK  114  A    between atoms: _275  and  _276
REMARK  115  A    between atoms: _275  and  _278
REMARK  116  A    between atoms: _278  and  _279
REMARK  117  A    between atoms: _282  and  _284
REMARK  118  A    between atoms: _284  and  _285
REMARK  119  A    between atoms: _284  and  _287
REMARK  120  A    between atoms: _287  and  _288
REMARK  121  A    between atoms: _298  and  _300
REMARK  122  A    between atoms: _300  and  _301
REMARK  123  A    between atoms: _300  and  _303
REMARK  124  A    between atoms: _303  and  _304
REMARK  125  A    between atoms: _304  and  _305
REMARK  126  A    between atoms: _307  and  _309
REMARK  127  A    between atoms: _309  and  _310
REMARK  128  A    between atoms: _309  and  _312
REMARK  129  A    between atoms: _312  and  _313
REMARK  130  A    between atoms: _315  and  _317
REMARK  131  A    between atoms: _317  and  _318
REMARK  132  A    between atoms: _317  and  _320
REMARK  133  A    between atoms: _323  and  _325
REMARK  134  A    between atoms: _325  and  _326
REMARK  135  A    between atoms: _325  and  _328
REMARK  136  A    between atoms: _328  and  _329
REMARK  137  A    between atoms: _329  and  _330
REMARK  138  A    between atoms: _330  and  _331
REMARK  139  A    between atoms: _331  and  _332
REMARK  140  A    between atoms: _336  and  _338
REMARK  141  A    between atoms: _338  and  _339
REMARK  142  A    between atoms: _338  and  _341
REMARK  143  A    between atoms: _341  and  _342
REMARK  144  A    between atoms: _347  and  _349
REMARK  145  A    between atoms: _349  and  _350
REMARK  146  A    between atoms: _349  and  _352
REMARK  147  A    between atoms: _352  and  _353
REMARK  148  A    between atoms: _356  and  _358
REMARK  149  A    between atoms: _358  and  _359
REMARK  150  A    between atoms: _358  and  _361
REMARK  151  A    between atoms: _361  and  _362
REMARK  152  A    between atoms: _365  and  _367
REMARK  153  A    between atoms: _367  and  _368
REMARK  154  A    between atoms: _367  and  _370
REMARK  155  A    between atoms: _370  and  _371
REMARK  156  A    between atoms: _376  and  _377
REMARK  157  A    between atoms: _379  and  _381
REMARK  158  A    between atoms: _381  and  _382
REMARK  159  A    between atoms: _384  and  _386
REMARK  160  A    between atoms: _386  and  _387
REMARK  161  A    between atoms: _386  and  _389
REMARK  162  A    between atoms: _389  and  _390
REMARK  163  A    between atoms: _390  and  _391
REMARK  164  A    between atoms: _391  and  _392
REMARK  165  A    between atoms: _392  and  _393
REMARK  166  A    between atoms: _397  and  _399
REMARK  167  A    between atoms: _399  and  _400
REMARK  168  A    between atoms: _399  and  _402
REMARK  169  A    between atoms: _405  and  _407
REMARK  170  A    between atoms: _407  and  _408
REMARK  171  A    between atoms: _407  and  _410
REMARK  172  A    between atoms: _412  and  _414
REMARK  173  A    between atoms: _414  and  _415
REMARK  174  A    between atoms: _417  and  _419
REMARK  175  A    between atoms: _419  and  _420
REMARK  176  A    between atoms: _419  and  _422
REMARK  177  A    between atoms: _422  and  _423
REMARK  178  A    between atoms: _429  and  _431
REMARK  179  A    between atoms: _431  and  _432
REMARK  180  A    between atoms: _431  and  _434
REMARK  181  A    between atoms: _434  and  _435
REMARK  182  A    between atoms: _438  and  _440
REMARK  183  A    between atoms: _440  and  _441
REMARK  184  A    between atoms: _440  and  _443
REMARK  185  A    between atoms: _443  and  _444
REMARK  186  A    between atoms: _447  and  _449
REMARK  187  A    between atoms: _449  and  _450
REMARK  188  A    between atoms: _449  and  _452
REMARK  189  A    between atoms: _452  and  _453
REMARK  190  A    between atoms: _453  and  _454
REMARK  191  A    between atoms: _457  and  _459
REMARK  192  A    between atoms: _459  and  _460
REMARK  193  A    between atoms: _459  and  _462
REMARK  194  A    between atoms: _462  and  _463
REMARK  195  A    between atoms: _466  and  _468
REMARK  196  A    between atoms: _468  and  _469
REMARK  197  A    between atoms: _468  and  _471
REMARK  198  A    between atoms: _473  and  _475
REMARK  199  A    between atoms: _475  and  _476
REMARK  200  A    between atoms: _478  and  _480
REMARK  201  A    between atoms: _480  and  _481
REMARK  202  A    between atoms: _480  and  _483
REMARK  203  A    between atoms: _483  and  _484
REMARK  204  A    between atoms: _487  and  _489
REMARK  205  A    between atoms: _489  and  _490
REMARK  206  A    between atoms: _492  and  _494
REMARK  207  A    between atoms: _494  and  _495
REMARK  208  A    between atoms: _494  and  _497
REMARK  209  A    between atoms: _497  and  _498
REMARK  210  A    between atoms: _501  and  _503
REMARK  211  A    between atoms: _503  and  _504
REMARK  212  A    between atoms: _503  and  _506
REMARK  213  A    between atoms: _506  and  _507
REMARK  214  A    between atoms: _512  and  _514
REMARK  215  A    between atoms: _514  and  _515
REMARK  216  A    between atoms: _514  and  _517
REMARK  217  A    between atoms: _517  and  _518
REMARK  218  A    between atoms: _521  and  _523
REMARK  219  A    between atoms: _523  and  _524
REMARK  220  A    between atoms: _523  and  _526
REMARK  221  A    between atoms: _526  and  _527
REMARK  222  A    between atoms: _527  and  _528
REMARK  223  A    between atoms: _533  and  _535
REMARK  224  A    between atoms: _535  and  _536
REMARK  225  A    between atoms: _535  and  _538
REMARK  226  A    between atoms: _538  and  _539
REMARK  227  A    between atoms: _545  and  _547
REMARK  228  A    between atoms: _547  and  _548
REMARK  229  A    between atoms: _547  and  _550
REMARK  230  A    between atoms: _550  and  _551
REMARK  231  A    between atoms: _554  and  _556
REMARK  232  A    between atoms: _556  and  _557
REMARK  233  A    between atoms: _556  and  _559
REMARK  234  A    between atoms: _559  and  _560
REMARK  235  A    between atoms: _562  and  _564
REMARK  236  A    between atoms: _564  and  _565
REMARK  237  A    between atoms: _564  and  _567
REMARK  238  A    between atoms: _567  and  _568
REMARK  239  A    between atoms: _571  and  _573
REMARK  240  A    between atoms: _573  and  _574
REMARK  241  A    between atoms: _573  and  _576
REMARK  242  A    between atoms: _576  and  _577
REMARK  243  A    between atoms: _577  and  _578
REMARK  244  A    between atoms: _578  and  _579
REMARK  245  A    between atoms: _588  and  _590
REMARK  246  A    between atoms: _590  and  _591
REMARK  247  A    between atoms: _590  and  _593
REMARK  248  A    between atoms: _593  and  _594
REMARK  249  A    between atoms: _594  and  _595
REMARK  250  A    between atoms: _595  and  _596
REMARK  251  A    between atoms: _605  and  _607
REMARK  252  A    between atoms: _607  and  _608
REMARK  253  A    between atoms: _611  and  _613
REMARK  254  A    between atoms: _613  and  _614
REMARK  255  A    between atoms: _613  and  _616
REMARK  256  A    between atoms: _616  and  _617
REMARK  257  A    between atoms: _620  and  _622
REMARK  258  A    between atoms: _622  and  _623
REMARK  259  A    between atoms: _622  and  _625
REMARK  260  A    between atoms: _625  and  _626
REMARK  261  A    between atoms: _628  and  _630
REMARK  262  A    between atoms: _630  and  _631
REMARK  263  A    between atoms: _630  and  _633
REMARK  264  A    between atoms: _633  and  _634
REMARK  265  A    between atoms: _637  and  _639
REMARK  266  A    between atoms: _639  and  _640
REMARK  267  A    between atoms: _639  and  _642
REMARK  268  A    between atoms: _642  and  _643
REMARK  269  A    between atoms: _646  and  _648
REMARK  270  A    between atoms: _648  and  _649
REMARK  271  A    between atoms: _648  and  _651
REMARK  272  A    between atoms: _651  and  _652
REMARK  273  A    between atoms: _655  and  _657
REMARK  274  A    between atoms: _657  and  _658
REMARK  275  A    between atoms: _657  and  _660
REMARK  276  A    between atoms: _660  and  _661
REMARK                            x       y       z     vdW  Elec       q    Type
REMARK                         _______ _______ _______ _____ _____    ______ ____
ROOT
ATOM      1  C   ILE A   4      43.900  17.922  22.810  0.00  0.00    +0.241 C 
ATOM      2  O   ILE A   4      43.405  17.904  23.961  0.00  0.00    -0.273 OA
ATOM      3  N   GLY A   5      44.724  18.882  22.377  0.00  0.00    -0.295 N 
ATOM      4  H   GLY A   5      44.945  18.899  21.361  0.00  0.00    +0.150 HD
ENDROOT
BRANCH   3   5
ATOM      5  CA  GLY A   5      45.322  19.880  23.191  0.00  0.00    +0.176 C 
BRANCH   5   6
ATOM      6  C   GLY A   5      44.954  21.214  22.592  0.00  0.00    +0.243 C 
ATOM      7  N   ILE A   6      44.196  22.012  23.356  0.00  0.00    -0.297 N 
ATOM      8  H   ILE A   6      43.938  21.701  24.314  0.00  0.00    +0.150 HD
ATOM      9  O   GLY A   5      45.335  21.520  21.433  0.00  0.00    -0.273 OA
BRANCH   7  10
ATOM     10  CA  ILE A   6      43.724  23.304  22.878  0.00  0.00    +0.149 C 
BRANCH  10  11
ATOM     11  C   ILE A   6      44.056  24.416  23.859  0.00  0.00    +0.241 C 
ATOM     12  O   ILE A   6      43.641  24.371  25.040  0.00  0.00    -0.273 OA
ATOM     13  N   ASN A   7      44.794  25.418  23.375  0.00  0.00    -0.297 N 
ATOM     14  H   ASN A   7      45.129  25.356  22.393  0.00  0.00    +0.150 HD
BRANCH  13  15
ATOM     15  CA  ASN A   7      45.150  26.588  24.154  0.00  0.00    +0.158 C 
BRANCH  15  16
ATOM     16  C   ASN A   7      43.925  27.452  24.332  0.00  0.00    +0.241 C 
ATOM     17  N   LEU A   8      43.474  27.631  25.581  0.00  0.00    -0.298 N 
ATOM     18  H   LEU A   8      44.048  27.303  26.384  0.00  0.00    +0.150 HD
ATOM     19  O   ASN A   7      43.371  27.920  23.346  0.00  0.00    -0.273 OA
BRANCH  17  20
ATOM     20  CA  LEU A   8      42.180  28.283  25.836  0.00  0.00    +0.137 C 
BRANCH  20  21
ATOM     21  C   LEU A   8      42.385  29.699  26.308  0.00  0.00    +0.227 C 
ATOM     22  O   LEU A   8      41.882  30.610  25.718  0.00  0.00    -0.286 OA
ENDBRANCH  20  21
BRANCH  20  23
ATOM     23  CB  LEU A   8      41.372  27.560  26.918  0.00  0.00    +0.028 C 
BRANCH  23  24
ATOM     24  CG  LEU A   8      40.774  26.211  26.551  0.00  0.00    +0.002 C 
ATOM     25  CD2 LEU A   8      39.888  25.749  27.732  0.00  0.00    +0.000 C 
ATOM     26  CD1 LEU A   8      40.016  26.212  25.197  0.00  0.00    +0.000 C 
ENDBRANCH  23  24
ENDBRANCH  20  23
ENDBRANCH  17  20
ENDBRANCH  15  16
BRANCH  15  27
ATOM     27  CB  ASN A   7      46.289  27.366  23.516  0.00  0.00    +0.114 C 
BRANCH  27  28
ATOM     28  CG  ASN A   7      47.538  26.538  23.338  0.00  0.00    +0.222 C 
ATOM     29  ND2 ASN A   7      47.862  25.733  24.319  0.00  0.00    -0.329 N 
ATOM     30 HD21 ASN A   7      47.274  25.695  25.176  0.00  0.00    +0.145 HD
ATOM     31 HD22 ASN A   7      48.707  25.132  24.241  0.00  0.00    +0.145 HD
ATOM     32  OD1 ASN A   7      48.210  26.614  22.300  0.00  0.00    -0.275 OA
ENDBRANCH  27  28
ENDBRANCH  15  27
ENDBRANCH  13  15
ENDBRANCH  10  11
BRANCH  10  33
ATOM     33  CB  ILE A   6      42.211  23.283  22.622  0.00  0.00    +0.027 C 
ATOM     34  CG2 ILE A   6      41.772  24.605  21.988  0.00  0.00    +0.002 C 
BRANCH  33  35
ATOM     35  CG1 ILE A   6      41.828  22.104  21.714  0.00  0.00    +0.002 C 
ATOM     36  CD1 ILE A   6      40.366  22.128  21.324  0.00  0.00    +0.000 C 
ENDBRANCH  33  35
ENDBRANCH  10  33
ENDBRANCH   7  10
ENDBRANCH   5   6
ENDBRANCH   3   5
BRANCH   1  37
ATOM     37  CA  ILE A   4      43.500  16.865  21.744  0.00  0.00    +0.149 C 
BRANCH  37  39
ATOM     38  C   GLY A   3      44.509  14.701  21.407  0.00  0.00    +0.243 C 
ATOM     39  N   ILE A   4      43.766  15.529  22.147  0.00  0.00    -0.297 N 
ATOM     40  H   ILE A   4      43.370  15.185  23.045  0.00  0.00    +0.150 HD
ATOM     41  O   GLY A   3      45.089  15.063  20.334  0.00  0.00    -0.273 OA
BRANCH  38  42
ATOM     42  CA  GLY A   3      44.696  13.290  21.940  0.00  0.00    +0.176 C 
BRANCH  42  45
ATOM     43  C   CYS A   2      42.906  11.850  21.039  0.00  0.00    +0.242 C 
ATOM     44  O   CYS A   2      42.100  12.191  21.889  0.00  0.00    -0.273 OA
ATOM     45  N   GLY A   3      44.174  12.280  21.031  0.00  0.00    -0.295 N 
ATOM     46  H   GLY A   3      44.825  11.867  20.333  0.00  0.00    +0.150 HD
BRANCH  43  47
ATOM     47  CA  CYS A   2      42.500  10.894  19.956  0.00  0.00    +0.160 C 
BRANCH  47  49
ATOM     48  C   ILE A   1      43.011   8.549  20.394  0.00  0.00    +0.238 C 
ATOM     49  N   CYS A   2      42.193   9.595  20.497  0.00  0.00    -0.297 N 
ATOM     50  H   CYS A   2      41.288   9.467  20.993  0.00  0.00    +0.150 HD
ATOM     51  O   ILE A   1      44.109   8.605  19.865  0.00  0.00    -0.274 OA
BRANCH  48  52
ATOM     52  CA  ILE A   1      42.556   7.271  21.028  0.00  0.00    +0.145 C 
BRANCH  52  53
ATOM     53  N   ILE A   1      42.241   6.373  19.935  0.00  0.00    -0.238 NA
ATOM     54  H   ILE A   1      42.965   6.223  19.203  0.00  0.00    +0.142 HD
ENDBRANCH  52  53
BRANCH  52  55
ATOM     55  CB  ILE A   1      43.700   6.749  21.893  0.00  0.00    +0.025 C 
ATOM     56  CG2 ILE A   1      43.919   7.654  23.128  0.00  0.00    +0.002 C 
BRANCH  55  57
ATOM     57  CG1 ILE A   1      43.460   5.314  22.307  0.00  0.00    +0.002 C 
ATOM     58  CD1 ILE A   1      44.387   4.336  21.591  0.00  0.00    +0.000 C 
ENDBRANCH  55  57
ENDBRANCH  52  55
ENDBRANCH  48  52
ENDBRANCH  47  49
BRANCH  47  59
ATOM     59  CB  CYS A   2      41.286  11.406  19.265  0.00  0.00    +0.098 C 
ATOM     60  SG  CYS A   2      41.691  12.856  18.182  0.00  0.00    -0.080 S 
ENDBRANCH  47  59
ENDBRANCH  43  47
ENDBRANCH  42  45
ENDBRANCH  38  42
ENDBRANCH  37  39
BRANCH  37  61
ATOM     61  CB  ILE A   4      42.002  17.010  21.506  0.00  0.00    +0.027 C 
ATOM     62  CG2 ILE A   4      41.706  18.425  21.062  0.00  0.00    +0.002 C 
BRANCH  61  63
ATOM     63  CG1 ILE A   4      41.506  15.899  20.574  0.00  0.00    +0.002 C 
ATOM     64  CD1 ILE A   4      39.978  15.917  20.355  0.00  0.00    +0.000 C 
ENDBRANCH  61  63
ENDBRANCH  37  61
ENDBRANCH   1  37
TORSDOF 27
REMARK  Name = ../refined-set-2016/4dq2/4dq2_pocket.pdb
REMARK  276 active torsions:
REMARK  status: ('A' for Active; 'I' for Inactive)
REMARK    1  A    between atoms: _1  and  _3
REMARK    2  A    between atoms: _3  and  _4
REMARK    3  A    between atoms: _3  and  _6
REMARK    4  A    between atoms: _6  and  _7
REMARK    5  A    between atoms: _10  and  _12
REMARK    6  A    between atoms: _12  and  _13
REMARK    7  A    between atoms: _12  and  _15
REMARK    8  A    between atoms: _15  and  _16
REMARK    9  A    between atoms: _19  and  _21
REMARK   10  A    between atoms: _21  and  _22
REMARK   11  A    between atoms: _21  and  _24
REMARK   12  A    between atoms: _24  and  _25
REMARK   13  A    between atoms: _27  and  _29
REMARK   14  A    between atoms: _29  and  _30
REMARK   15  A    between atoms: _29  and  _32
REMARK   16  A    between atoms: _32  and  _33
REMARK   17  A    between atoms: _36  and  _38
REMARK   18  A    between atoms: _38  and  _39
REMARK   19  A    between atoms: _38  and  _41
REMARK   20  A    between atoms: _41  and  _42
REMARK   21  A    between atoms: _42  and  _43
REMARK   22  A    between atoms: _48  and  _50
REMARK   23  A    between atoms: _50  and  _51
REMARK   24  A    between atoms: _50  and  _53
REMARK   25  A    between atoms: _53  and  _54
REMARK   26  A    between atoms: _57  and  _59
REMARK   27  A    between atoms: _59  and  _60
REMARK   28  A    between atoms: _63  and  _65
REMARK   29  A    between atoms: _65  and  _66
REMARK   30  A    between atoms: _69  and  _71
REMARK   31  A    between atoms: _71  and  _72
REMARK   32  A    between atoms: _71  and  _74
REMARK   33  A    between atoms: _74  and  _75
REMARK   34  A    between atoms: _75  and  _76
REMARK   35  A    between atoms: _76  and  _77
REMARK   36  A    between atoms: _77  and  _78
REMARK   37  A    between atoms: _82  and  _84
REMARK   38  A    between atoms: _84  and  _85
REMARK   39  A    between atoms: _84  and  _87
REMARK   40  A    between atoms: _87  and  _88
REMARK   41  A    between atoms: _91  and  _93
REMARK   42  A    between atoms: _93  and  _94
REMARK   43  A    between atoms: _93  and  _96
REMARK   44  A    between atoms: _96  and  _97
REMARK   45  A    between atoms: _99  and  _101
REMARK   46  A    between atoms: _101  and  _102
REMARK   47  A    between atoms: _101  and  _104
REMARK   48  A    between atoms: _104  and  _105
REMARK   49  A    between atoms: _105  and  _106
REMARK   50  A    between atoms: _111  and  _113
REMARK   51  A    between atoms: _113  and  _114
REMARK   52  A    between atoms: _113  and  _116
REMARK   53  A    between atoms: _116  and  _117
REMARK   54  A    between atoms: _120  and  _122
REMARK   55  A    between atoms: _122  and  _123
REMARK   56  A    between atoms: _122  and  _125
REMARK   57  A    between atoms: _125  and  _126
REMARK   58  A    between atoms: _126  and  _127
REMARK   59  A    between atoms: _127  and  _128
REMARK   60  A    between atoms: _128  and  _129
REMARK   61  A    between atoms: _133  and  _135
REMARK   62  A    between atoms: _135  and  _136
REMARK   63  A    between atoms: _138  and  _140
REMARK   64  A    between atoms: _140  and  _141
REMARK   65  A    between atoms: _140  and  _143
REMARK   66  A    between atoms: _143  and  _144
REMARK   67  A    between atoms: _144  and  _145
REMARK   68  A    between atoms: _145  and  _146
REMARK   69  A    between atoms: _155  and  _157
REMARK   70  A    between atoms: _157  and  _158
REMARK   71  A    between atoms: _160  and  _162
REMARK   72  A    between atoms: _162  and  _163
REMARK   73  A    between atoms: _162  and  _165
REMARK   74  A    between atoms: _165  and  _166
REMARK   75  A    between atoms: _166  and  _167
REMARK   76  A    between atoms: _167  and  _168
REMARK   77  A    between atoms: _177  and  _179
REMARK   78  A    between atoms: _179  and  _180
REMARK   79  A    between atoms: _179  and  _182
REMARK   80  A    between atoms: _182  and  _183
REMARK   81  A    between atoms: _189  and  _191
REMARK   82  A    between atoms: _191  and  _192
REMARK   83  A    between atoms: _191  and  _194
REMARK   84  A    between atoms: _194  and  _195
REMARK   85  A    between atoms: _200  and  _202
REMARK   86  A    between atoms: _202  and  _203
REMARK   87  A    between atoms: _202  and  _205
REMARK   88  A    between atoms: _205  and  _206
REMARK   89  A    between atoms: _206  and  _207
REMARK   90  A    between atoms: _207  and  _208
REMARK   91  A    between atoms: _217  and  _219
REMARK   92  A    between atoms: _219  and  _220
REMARK   93  A    between atoms: _219  and  _222
REMARK   94  A    between atoms: _222  and  _223
REMARK   95  A    between atoms: _228  and  _230
REMARK   96  A    between atoms: _230  and  _231
REMARK   97  A    between atoms: _230  and  _233
REMARK   98  A    between atoms: _233  and  _234
REMARK   99  A    between atoms: _244  and  _246
REMARK  100  A    between atoms: _246  and  _247
REMARK  101  A    between atoms: _246  and  _249
REMARK  102  A    between atoms: _249  and  _250
REMARK  103  A    between atoms: _252  and  _254
REMARK  104  A    between atoms: _254  and  _255
REMARK  105  A    between atoms: _254  and  _257
REMARK  106  A    between atoms: _257  and  _258
REMARK  107  A    between atoms: _260  and  _262
REMARK  108  A    between atoms: _262  and  _263
REMARK  109  A    between atoms: _262  and  _265
REMARK  110  A    between atoms: _265  and  _266
REMARK  111  A    between atoms: _268  and  _270
REMARK  112  A    between atoms: _270  and  _271
REMARK  113  A    between atoms: _273  and  _275
REMARK  114  A    between atoms: _275  and  _276
REMARK  115  A    between atoms: _275  and  _278
REMARK  116  A    between atoms: _278  and  _279
REMARK  117  A    between atoms: _282  and  _284
REMARK  118  A    between atoms: _284  and  _285
REMARK  119  A    between atoms: _284  and  _287
REMARK  120  A    between atoms: _287  and  _288
REMARK  121  A    between atoms: _298  and  _300
REMARK  122  A    between atoms: _300  and  _301
REMARK  123  A    between atoms: _300  and  _303
REMARK  124  A    between atoms: _303  and  _304
REMARK  125  A    between atoms: _304  and  _305
REMARK  126  A    between atoms: _307  and  _309
REMARK  127  A    between atoms: _309  and  _310
REMARK  128  A    between atoms: _309  and  _312
REMARK  129  A    between atoms: _312  and  _313
REMARK  130  A    between atoms: _315  and  _317
REMARK  131  A    between atoms: _317  and  _318
REMARK  132  A    between atoms: _317  and  _320
REMARK  133  A    between atoms: _323  and  _325
REMARK  134  A    between atoms: _325  and  _326
REMARK  135  A    between atoms: _325  and  _328
REMARK  136  A    between atoms: _328  and  _329
REMARK  137  A    between atoms: _329  and  _330
REMARK  138  A    between atoms: _330  and  _331
REMARK  139  A    between atoms: _331  and  _332
REMARK  140  A    between atoms: _336  and  _338
REMARK  141  A    between atoms: _338  and  _339
REMARK  142  A    between atoms: _338  and  _341
REMARK  143  A    between atoms: _341  and  _342
REMARK  144  A    between atoms: _347  and  _349
REMARK  145  A    between atoms: _349  and  _350
REMARK  146  A    between atoms: _349  and  _352
REMARK  147  A    between atoms: _352  and  _353
REMARK  148  A    between atoms: _356  and  _358
REMARK  149  A    between atoms: _358  and  _359
REMARK  150  A    between atoms: _358  and  _361
REMARK  151  A    between atoms: _361  and  _362
REMARK  152  A    between atoms: _365  and  _367
REMARK  153  A    between atoms: _367  and  _368
REMARK  154  A    between atoms: _367  and  _370
REMARK  155  A    between atoms: _370  and  _371
REMARK  156  A    between atoms: _376  and  _377
REMARK  157  A    between atoms: _379  and  _381
REMARK  158  A    between atoms: _381  and  _382
REMARK  159  A    between atoms: _384  and  _386
REMARK  160  A    between atoms: _386  and  _387
REMARK  161  A    between atoms: _386  and  _389
REMARK  162  A    between atoms: _389  and  _390
REMARK  163  A    between atoms: _390  and  _391
REMARK  164  A    between atoms: _391  and  _392
REMARK  165  A    between atoms: _392  and  _393
REMARK  166  A    between atoms: _397  and  _399
REMARK  167  A    between atoms: _399  and  _400
REMARK  168  A    between atoms: _399  and  _402
REMARK  169  A    between atoms: _405  and  _407
REMARK  170  A    between atoms: _407  and  _408
REMARK  171  A    between atoms: _407  and  _410
REMARK  172  A    between atoms: _412  and  _414
REMARK  173  A    between atoms: _414  and  _415
REMARK  174  A    between atoms: _417  and  _419
REMARK  175  A    between atoms: _419  and  _420
REMARK  176  A    between atoms: _419  and  _422
REMARK  177  A    between atoms: _422  and  _423
REMARK  178  A    between atoms: _429  and  _431
REMARK  179  A    between atoms: _431  and  _432
REMARK  180  A    between atoms: _431  and  _434
REMARK  181  A    between atoms: _434  and  _435
REMARK  182  A    between atoms: _438  and  _440
REMARK  183  A    between atoms: _440  and  _441
REMARK  184  A    between atoms: _440  and  _443
REMARK  185  A    between atoms: _443  and  _444
REMARK  186  A    between atoms: _447  and  _449
REMARK  187  A    between atoms: _449  and  _450
REMARK  188  A    between atoms: _449  and  _452
REMARK  189  A    between atoms: _452  and  _453
REMARK  190  A    between atoms: _453  and  _454
REMARK  191  A    between atoms: _457  and  _459
REMARK  192  A    between atoms: _459  and  _460
REMARK  193  A    between atoms: _459  and  _462
REMARK  194  A    between atoms: _462  and  _463
REMARK  195  A    between atoms: _466  and  _468
REMARK  196  A    between atoms: _468  and  _469
REMARK  197  A    between atoms: _468  and  _471
REMARK  198  A    between atoms: _473  and  _475
REMARK  199  A    between atoms: _475  and  _476
REMARK  200  A    between atoms: _478  and  _480
REMARK  201  A    between atoms: _480  and  _481
REMARK  202  A    between atoms: _480  and  _483
REMARK  203  A    between atoms: _483  and  _484
REMARK  204  A    between atoms: _487  and  _489
REMARK  205  A    between atoms: _489  and  _490
REMARK  206  A    between atoms: _492  and  _494
REMARK  207  A    between atoms: _494  and  _495
REMARK  208  A    between atoms: _494  and  _497
REMARK  209  A    between atoms: _497  and  _498
REMARK  210  A    between atoms: _501  and  _503
REMARK  211  A    between atoms: _503  and  _504
REMARK  212  A    between atoms: _503  and  _506
REMARK  213  A    between atoms: _506  and  _507
REMARK  214  A    between atoms: _512  and  _514
REMARK  215  A    between atoms: _514  and  _515
REMARK  216  A    between atoms: _514  and  _517
REMARK  217  A    between atoms: _517  and  _518
REMARK  218  A    between atoms: _521  and  _523
REMARK  219  A    between atoms: _523  and  _524
REMARK  220  A    between atoms: _523  and  _526
REMARK  221  A    between atoms: _526  and  _527
REMARK  222  A    between atoms: _527  and  _528
REMARK  223  A    between atoms: _533  and  _535
REMARK  224  A    between atoms: _535  and  _536
REMARK  225  A    between atoms: _535  and  _538
REMARK  226  A    between atoms: _538  and  _539
REMARK  227  A    between atoms: _545  and  _547
REMARK  228  A    between atoms: _547  and  _548
REMARK  229  A    between atoms: _547  and  _550
REMARK  230  A    between atoms: _550  and  _551
REMARK  231  A    between atoms: _554  and  _556
REMARK  232  A    between atoms: _556  and  _557
REMARK  233  A    between atoms: _556  and  _559
REMARK  234  A    between atoms: _559  and  _560
REMARK  235  A    between atoms: _562  and  _564
REMARK  236  A    between atoms: _564  and  _565
REMARK  237  A    between atoms: _564  and  _567
REMARK  238  A    between atoms: _567  and  _568
REMARK  239  A    between atoms: _571  and  _573
REMARK  240  A    between atoms: _573  and  _574
REMARK  241  A    between atoms: _573  and  _576
REMARK  242  A    between atoms: _576  and  _577
REMARK  243  A    between atoms: _577  and  _578
REMARK  244  A    between atoms: _578  and  _579
REMARK  245  A    between atoms: _588  and  _590
REMARK  246  A    between atoms: _590  and  _591
REMARK  247  A    between atoms: _590  and  _593
REMARK  248  A    between atoms: _593  and  _594
REMARK  249  A    between atoms: _594  and  _595
REMARK  250  A    between atoms: _595  and  _596
REMARK  251  A    between atoms: _605  and  _607
REMARK  252  A    between atoms: _607  and  _608
REMARK  253  A    between atoms: _611  and  _613
REMARK  254  A    between atoms: _613  and  _614
REMARK  255  A    between atoms: _613  and  _616
REMARK  256  A    between atoms: _616  and  _617
REMARK  257  A    between atoms: _620  and  _622
REMARK  258  A    between atoms: _622  and  _623
REMARK  259  A    between atoms: _622  and  _625
REMARK  260  A    between atoms: _625  and  _626
REMARK  261  A    between atoms: _628  and  _630
REMARK  262  A    between atoms: _630  and  _631
REMARK  263  A    between atoms: _630  and  _633
REMARK  264  A    between atoms: _633  and  _634
REMARK  265  A    between atoms: _637  and  _639
REMARK  266  A    between atoms: _639  and  _640
REMARK  267  A    between atoms: _639  and  _642
REMARK  268  A    between atoms: _642  and  _643
REMARK  269  A    between atoms: _646  and  _648
REMARK  270  A    between atoms: _648  and  _649
REMARK  271  A    between atoms: _648  and  _651
REMARK  272  A    between atoms: _651  and  _652
REMARK  273  A    between atoms: _655  and  _657
REMARK  274  A    between atoms: _657  and  _658
REMARK  275  A    between atoms: _657  and  _660
REMARK  276  A    between atoms: _660  and  _661
REMARK                            x       y       z     vdW  Elec       q    Type
REMARK                         _______ _______ _______ _____ _____    ______ ____
ROOT
ATOM      1  CB  GLN A   1      48.087  31.065  26.954  0.00  0.00    +0.035 C 
ENDROOT
BRANCH   1   2
ATOM      2  CA  GLN A   1      47.030  31.821  27.786  0.00  0.00    +0.134 C 
BRANCH   2   3
ATOM      3  N   GLN A   1      45.719  31.158  27.723  0.00  0.00    -0.239 NA
ATOM      4  H   GLN A   1      45.640  30.190  27.352  0.00  0.00    +0.142 HD
ENDBRANCH   2   3
BRANCH   2   5
ATOM      5  C   GLN A   1      47.001  33.221  27.200  0.00  0.00    +0.224 C 
ATOM      6  O   GLN A   1      46.369  33.442  26.144  0.00  0.00    -0.287 OA
ENDBRANCH   2   5
ENDBRANCH   1   2
BRANCH   1   7
ATOM      7  CG  GLN A   1      48.521  29.719  27.508  0.00  0.00    +0.087 C 
BRANCH   7   8
ATOM      8  CD  GLN A   1      47.767  28.576  26.863  0.00  0.00    +0.219 C 
ATOM      9  NE2 GLN A   1      48.415  27.398  26.810  0.00  0.00    -0.329 N 
ATOM     10 HE21 GLN A   1      49.372  27.312  27.209  0.00  0.00    +0.145 HD
ATOM     11 HE22 GLN A   1      47.959  26.573  26.371  0.00  0.00    +0.145 HD
ATOM     12  OE1 GLN A   1      46.622  28.744  26.405  0.00  0.00    -0.275 OA
ENDBRANCH   7   8
ENDBRANCH   1   7
TORSDOF 5
REMARK  Name = ../refined-set-2016/4dq2/4dq2_pocket.pdb
REMARK  276 active torsions:
REMARK  status: ('A' for Active; 'I' for Inactive)
REMARK    1  A    between atoms: _1  and  _3
REMARK    2  A    between atoms: _3  and  _4
REMARK    3  A    between atoms: _3  and  _6
REMARK    4  A    between atoms: _6  and  _7
REMARK    5  A    between atoms: _10  and  _12
REMARK    6  A    between atoms: _12  and  _13
REMARK    7  A    between atoms: _12  and  _15
REMARK    8  A    between atoms: _15  and  _16
REMARK    9  A    between atoms: _19  and  _21
REMARK   10  A    between atoms: _21  and  _22
REMARK   11  A    between atoms: _21  and  _24
REMARK   12  A    between atoms: _24  and  _25
REMARK   13  A    between atoms: _27  and  _29
REMARK   14  A    between atoms: _29  and  _30
REMARK   15  A    between atoms: _29  and  _32
REMARK   16  A    between atoms: _32  and  _33
REMARK   17  A    between atoms: _36  and  _38
REMARK   18  A    between atoms: _38  and  _39
REMARK   19  A    between atoms: _38  and  _41
REMARK   20  A    between atoms: _41  and  _42
REMARK   21  A    between atoms: _42  and  _43
REMARK   22  A    between atoms: _48  and  _50
REMARK   23  A    between atoms: _50  and  _51
REMARK   24  A    between atoms: _50  and  _53
REMARK   25  A    between atoms: _53  and  _54
REMARK   26  A    between atoms: _57  and  _59
REMARK   27  A    between atoms: _59  and  _60
REMARK   28  A    between atoms: _63  and  _65
REMARK   29  A    between atoms: _65  and  _66
REMARK   30  A    between atoms: _69  and  _71
REMARK   31  A    between atoms: _71  and  _72
REMARK   32  A    between atoms: _71  and  _74
REMARK   33  A    between atoms: _74  and  _75
REMARK   34  A    between atoms: _75  and  _76
REMARK   35  A    between atoms: _76  and  _77
REMARK   36  A    between atoms: _77  and  _78
REMARK   37  A    between atoms: _82  and  _84
REMARK   38  A    between atoms: _84  and  _85
REMARK   39  A    between atoms: _84  and  _87
REMARK   40  A    between atoms: _87  and  _88
REMARK   41  A    between atoms: _91  and  _93
REMARK   42  A    between atoms: _93  and  _94
REMARK   43  A    between atoms: _93  and  _96
REMARK   44  A    between atoms: _96  and  _97
REMARK   45  A    between atoms: _99  and  _101
REMARK   46  A    between atoms: _101  and  _102
REMARK   47  A    between atoms: _101  and  _104
REMARK   48  A    between atoms: _104  and  _105
REMARK   49  A    between atoms: _105  and  _106
REMARK   50  A    between atoms: _111  and  _113
REMARK   51  A    between atoms: _113  and  _114
REMARK   52  A    between atoms: _113  and  _116
REMARK   53  A    between atoms: _116  and  _117
REMARK   54  A    between atoms: _120  and  _122
REMARK   55  A    between atoms: _122  and  _123
REMARK   56  A    between atoms: _122  and  _125
REMARK   57  A    between atoms: _125  and  _126
REMARK   58  A    between atoms: _126  and  _127
REMARK   59  A    between atoms: _127  and  _128
REMARK   60  A    between atoms: _128  and  _129
REMARK   61  A    between atoms: _133  and  _135
REMARK   62  A    between atoms: _135  and  _136
REMARK   63  A    between atoms: _138  and  _140
REMARK   64  A    between atoms: _140  and  _141
REMARK   65  A    between atoms: _140  and  _143
REMARK   66  A    between atoms: _143  and  _144
REMARK   67  A    between atoms: _144  and  _145
REMARK   68  A    between atoms: _145  and  _146
REMARK   69  A    between atoms: _155  and  _157
REMARK   70  A    between atoms: _157  and  _158
REMARK   71  A    between atoms: _160  and  _162
REMARK   72  A    between atoms: _162  and  _163
REMARK   73  A    between atoms: _162  and  _165
REMARK   74  A    between atoms: _165  and  _166
REMARK   75  A    between atoms: _166  and  _167
REMARK   76  A    between atoms: _167  and  _168
REMARK   77  A    between atoms: _177  and  _179
REMARK   78  A    between atoms: _179  and  _180
REMARK   79  A    between atoms: _179  and  _182
REMARK   80  A    between atoms: _182  and  _183
REMARK   81  A    between atoms: _189  and  _191
REMARK   82  A    between atoms: _191  and  _192
REMARK   83  A    between atoms: _191  and  _194
REMARK   84  A    between atoms: _194  and  _195
REMARK   85  A    between atoms: _200  and  _202
REMARK   86  A    between atoms: _202  and  _203
REMARK   87  A    between atoms: _202  and  _205
REMARK   88  A    between atoms: _205  and  _206
REMARK   89  A    between atoms: _206  and  _207
REMARK   90  A    between atoms: _207  and  _208
REMARK   91  A    between atoms: _217  and  _219
REMARK   92  A    between atoms: _219  and  _220
REMARK   93  A    between atoms: _219  and  _222
REMARK   94  A    between atoms: _222  and  _223
REMARK   95  A    between atoms: _228  and  _230
REMARK   96  A    between atoms: _230  and  _231
REMARK   97  A    between atoms: _230  and  _233
REMARK   98  A    between atoms: _233  and  _234
REMARK   99  A    between atoms: _244  and  _246
REMARK  100  A    between atoms: _246  and  _247
REMARK  101  A    between atoms: _246  and  _249
REMARK  102  A    between atoms: _249  and  _250
REMARK  103  A    between atoms: _252  and  _254
REMARK  104  A    between atoms: _254  and  _255
REMARK  105  A    between atoms: _254  and  _257
REMARK  106  A    between atoms: _257  and  _258
REMARK  107  A    between atoms: _260  and  _262
REMARK  108  A    between atoms: _262  and  _263
REMARK  109  A    between atoms: _262  and  _265
REMARK  110  A    between atoms: _265  and  _266
REMARK  111  A    between atoms: _268  and  _270
REMARK  112  A    between atoms: _270  and  _271
REMARK  113  A    between atoms: _273  and  _275
REMARK  114  A    between atoms: _275  and  _276
REMARK  115  A    between atoms: _275  and  _278
REMARK  116  A    between atoms: _278  and  _279
REMARK  117  A    between atoms: _282  and  _284
REMARK  118  A    between atoms: _284  and  _285
REMARK  119  A    between atoms: _284  and  _287
REMARK  120  A    between atoms: _287  and  _288
REMARK  121  A    between atoms: _298  and  _300
REMARK  122  A    between atoms: _300  and  _301
REMARK  123  A    between atoms: _300  and  _303
REMARK  124  A    between atoms: _303  and  _304
REMARK  125  A    between atoms: _304  and  _305
REMARK  126  A    between atoms: _307  and  _309
REMARK  127  A    between atoms: _309  and  _310
REMARK  128  A    between atoms: _309  and  _312
REMARK  129  A    between atoms: _312  and  _313
REMARK  130  A    between atoms: _315  and  _317
REMARK  131  A    between atoms: _317  and  _318
REMARK  132  A    between atoms: _317  and  _320
REMARK  133  A    between atoms: _323  and  _325
REMARK  134  A    between atoms: _325  and  _326
REMARK  135  A    between atoms: _325  and  _328
REMARK  136  A    between atoms: _328  and  _329
REMARK  137  A    between atoms: _329  and  _330
REMARK  138  A    between atoms: _330  and  _331
REMARK  139  A    between atoms: _331  and  _332
REMARK  140  A    between atoms: _336  and  _338
REMARK  141  A    between atoms: _338  and  _339
REMARK  142  A    between atoms: _338  and  _341
REMARK  143  A    between atoms: _341  and  _342
REMARK  144  A    between atoms: _347  and  _349
REMARK  145  A    between atoms: _349  and  _350
REMARK  146  A    between atoms: _349  and  _352
REMARK  147  A    between atoms: _352  and  _353
REMARK  148  A    between atoms: _356  and  _358
REMARK  149  A    between atoms: _358  and  _359
REMARK  150  A    between atoms: _358  and  _361
REMARK  151  A    between atoms: _361  and  _362
REMARK  152  A    between atoms: _365  and  _367
REMARK  153  A    between atoms: _367  and  _368
REMARK  154  A    between atoms: _367  and  _370
REMARK  155  A    between atoms: _370  and  _371
REMARK  156  A    between atoms: _376  and  _377
REMARK  157  A    between atoms: _379  and  _381
REMARK  158  A    between atoms: _381  and  _382
REMARK  159  A    between atoms: _384  and  _386
REMARK  160  A    between atoms: _386  and  _387
REMARK  161  A    between atoms: _386  and  _389
REMARK  162  A    between atoms: _389  and  _390
REMARK  163  A    between atoms: _390  and  _391
REMARK  164  A    between atoms: _391  and  _392
REMARK  165  A    between atoms: _392  and  _393
REMARK  166  A    between atoms: _397  and  _399
REMARK  167  A    between atoms: _399  and  _400
REMARK  168  A    between atoms: _399  and  _402
REMARK  169  A    between atoms: _405  and  _407
REMARK  170  A    between atoms: _407  and  _408
REMARK  171  A    between atoms: _407  and  _410
REMARK  172  A    between atoms: _412  and  _414
REMARK  173  A    between atoms: _414  and  _415
REMARK  174  A    between atoms: _417  and  _419
REMARK  175  A    between atoms: _419  and  _420
REMARK  176  A    between atoms: _419  and  _422
REMARK  177  A    between atoms: _422  and  _423
REMARK  178  A    between atoms: _429  and  _431
REMARK  179  A    between atoms: _431  and  _432
REMARK  180  A    between atoms: _431  and  _434
REMARK  181  A    between atoms: _434  and  _435
REMARK  182  A    between atoms: _438  and  _440
REMARK  183  A    between atoms: _440  and  _441
REMARK  184  A    between atoms: _440  and  _443
REMARK  185  A    between atoms: _443  and  _444
REMARK  186  A    between atoms: _447  and  _449
REMARK  187  A    between atoms: _449  and  _450
REMARK  188  A    between atoms: _449  and  _452
REMARK  189  A    between atoms: _452  and  _453
REMARK  190  A    between atoms: _453  and  _454
REMARK  191  A    between atoms: _457  and  _459
REMARK  192  A    between atoms: _459  and  _460
REMARK  193  A    between atoms: _459  and  _462
REMARK  194  A    between atoms: _462  and  _463
REMARK  195  A    between atoms: _466  and  _468
REMARK  196  A    between atoms: _468  and  _469
REMARK  197  A    between atoms: _468  and  _471
REMARK  198  A    between atoms: _473  and  _475
REMARK  199  A    between atoms: _475  and  _476
REMARK  200  A    between atoms: _478  and  _480
REMARK  201  A    between atoms: _480  and  _481
REMARK  202  A    between atoms: _480  and  _483
REMARK  203  A    between atoms: _483  and  _484
REMARK  204  A    between atoms: _487  and  _489
REMARK  205  A    between atoms: _489  and  _490
REMARK  206  A    between atoms: _492  and  _494
REMARK  207  A    between atoms: _494  and  _495
REMARK  208  A    between atoms: _494  and  _497
REMARK  209  A    between atoms: _497  and  _498
REMARK  210  A    between atoms: _501  and  _503
REMARK  211  A    between atoms: _503  and  _504
REMARK  212  A    between atoms: _503  and  _506
REMARK  213  A    between atoms: _506  and  _507
REMARK  214  A    between atoms: _512  and  _514
REMARK  215  A    between atoms: _514  and  _515
REMARK  216  A    between atoms: _514  and  _517
REMARK  217  A    between atoms: _517  and  _518
REMARK  218  A    between atoms: _521  and  _523
REMARK  219  A    between atoms: _523  and  _524
REMARK  220  A    between atoms: _523  and  _526
REMARK  221  A    between atoms: _526  and  _527
REMARK  222  A    between atoms: _527  and  _528
REMARK  223  A    between atoms: _533  and  _535
REMARK  224  A    between atoms: _535  and  _536
REMARK  225  A    between atoms: _535  and  _538
REMARK  226  A    between atoms: _538  and  _539
REMARK  227  A    between atoms: _545  and  _547
REMARK  228  A    between atoms: _547  and  _548
REMARK  229  A    between atoms: _547  and  _550
REMARK  230  A    between atoms: _550  and  _551
REMARK  231  A    between atoms: _554  and  _556
REMARK  232  A    between atoms: _556  and  _557
REMARK  233  A    between atoms: _556  and  _559
REMARK  234  A    between atoms: _559  and  _560
REMARK  235  A    between atoms: _562  and  _564
REMARK  236  A    between atoms: _564  and  _565
REMARK  237  A    between atoms: _564  and  _567
REMARK  238  A    between atoms: _567  and  _568
REMARK  239  A    between atoms: _571  and  _573
REMARK  240  A    between atoms: _573  and  _574
REMARK  241  A    between atoms: _573  and  _576
REMARK  242  A    between atoms: _576  and  _577
REMARK  243  A    between atoms: _577  and  _578
REMARK  244  A    between atoms: _578  and  _579
REMARK  245  A    between atoms: _588  and  _590
REMARK  246  A    between atoms: _590  and  _591
REMARK  247  A    between atoms: _590  and  _593
REMARK  248  A    between atoms: _593  and  _594
REMARK  249  A    between atoms: _594  and  _595
REMARK  250  A    between atoms: _595  and  _596
REMARK  251  A    between atoms: _605  and  _607
REMARK  252  A    between atoms: _607  and  _608
REMARK  253  A    between atoms: _611  and  _613
REMARK  254  A    between atoms: _613  and  _614
REMARK  255  A    between atoms: _613  and  _616
REMARK  256  A    between atoms: _616  and  _617
REMARK  257  A    between atoms: _620  and  _622
REMARK  258  A    between atoms: _622  and  _623
REMARK  259  A    between atoms: _622  and  _625
REMARK  260  A    between atoms: _625  and  _626
REMARK  261  A    between atoms: _628  and  _630
REMARK  262  A    between atoms: _630  and  _631
REMARK  263  A    between atoms: _630  and  _633
REMARK  264  A    between atoms: _633  and  _634
REMARK  265  A    between atoms: _637  and  _639
REMARK  266  A    between atoms: _639  and  _640
REMARK  267  A    between atoms: _639  and  _642
REMARK  268  A    between atoms: _642  and  _643
REMARK  269  A    between atoms: _646  and  _648
REMARK  270  A    between atoms: _648  and  _649
REMARK  271  A    between atoms: _648  and  _651
REMARK  272  A    between atoms: _651  and  _652
REMARK  273  A    between atoms: _655  and  _657
REMARK  274  A    between atoms: _657  and  _658
REMARK  275  A    between atoms: _657  and  _660
REMARK  276  A    between atoms: _660  and  _661
REMARK                            x       y       z     vdW  Elec       q    Type
REMARK                         _______ _______ _______ _____ _____    ______ ____
ROOT
ATOM      1  C   PHE A   1      55.510  30.733  26.630  0.00  0.00    +0.239 C 
ATOM      2  O   PHE A   1      56.032  31.834  26.704  0.00  0.00    -0.274 OA
ATOM      3  N   ASP A   2      56.217  29.606  26.575  0.00  0.00    -0.298 N 
ATOM      4  H   ASP A   2      55.724  28.693  26.502  0.00  0.00    +0.150 HD
ENDROOT
BRANCH   1   5
ATOM      5  CA  PHE A   1      54.002  30.612  26.506  0.00  0.00    +0.149 C 
BRANCH   5   6
ATOM      6  N   PHE A   1      53.326  31.610  27.302  0.00  0.00    -0.238 NA
ATOM      7  H   PHE A   1      53.093  32.519  26.853  0.00  0.00    +0.142 HD
ENDBRANCH   5   6
BRANCH   5   8
ATOM      8  CB  PHE A   1      53.653  30.790  25.020  0.00  0.00    +0.053 C 
BRANCH   8   9
ATOM      9  CG  PHE A   1      52.232  30.475  24.655  0.00  0.00    -0.020 A 
ATOM     10  CD2 PHE A   1      51.726  29.181  24.760  0.00  0.00    -0.004 A 
ATOM     11  CE2 PHE A   1      50.395  28.901  24.416  0.00  0.00    -0.000 A 
ATOM     12  CZ  PHE A   1      49.570  29.912  23.877  0.00  0.00    -0.000 A 
ATOM     13  CE1 PHE A   1      50.071  31.187  23.745  0.00  0.00    -0.000 A 
ATOM     14  CD1 PHE A   1      51.415  31.462  24.133  0.00  0.00    -0.004 A 
ENDBRANCH   8   9
ENDBRANCH   5   8
ENDBRANCH   1   5
BRANCH   3  15
ATOM     15  CA  ASP A   2      57.657  29.636  26.616  0.00  0.00    +0.148 C 
BRANCH  15  16
ATOM     16  C   ASP A   2      58.188  30.398  25.401  0.00  0.00    +0.227 C 
ATOM     17  O   ASP A   2      57.654  30.294  24.293  0.00  0.00    -0.286 OA
ENDBRANCH  15  16
BRANCH  15  18
ATOM     18  CB  ASP A   2      58.249  28.224  26.697  0.00  0.00    +0.142 C 
BRANCH  18  19
ATOM     19  CG  ASP A   2      59.753  28.234  26.990  0.00  0.00    +0.367 C 
ATOM     20  OD2 ASP A   2      60.121  27.961  28.157  0.00  0.00    -0.246 OA
ATOM     21  OD1 ASP A   2      60.578  28.547  26.080  0.00  0.00    -0.246 OA
ENDBRANCH  18  19
ENDBRANCH  15  18
ENDBRANCH   3  15
TORSDOF 8
REMARK  Name = ../refined-set-2016/4dq2/4dq2_pocket.pdb
REMARK  276 active torsions:
REMARK  status: ('A' for Active; 'I' for Inactive)
REMARK    1  A    between atoms: _1  and  _3
REMARK    2  A    between atoms: _3  and  _4
REMARK    3  A    between atoms: _3  and  _6
REMARK    4  A    between atoms: _6  and  _7
REMARK    5  A    between atoms: _10  and  _12
REMARK    6  A    between atoms: _12  and  _13
REMARK    7  A    between atoms: _12  and  _15
REMARK    8  A    between atoms: _15  and  _16
REMARK    9  A    between atoms: _19  and  _21
REMARK   10  A    between atoms: _21  and  _22
REMARK   11  A    between atoms: _21  and  _24
REMARK   12  A    between atoms: _24  and  _25
REMARK   13  A    between atoms: _27  and  _29
REMARK   14  A    between atoms: _29  and  _30
REMARK   15  A    between atoms: _29  and  _32
REMARK   16  A    between atoms: _32  and  _33
REMARK   17  A    between atoms: _36  and  _38
REMARK   18  A    between atoms: _38  and  _39
REMARK   19  A    between atoms: _38  and  _41
REMARK   20  A    between atoms: _41  and  _42
REMARK   21  A    between atoms: _42  and  _43
REMARK   22  A    between atoms: _48  and  _50
REMARK   23  A    between atoms: _50  and  _51
REMARK   24  A    between atoms: _50  and  _53
REMARK   25  A    between atoms: _53  and  _54
REMARK   26  A    between atoms: _57  and  _59
REMARK   27  A    between atoms: _59  and  _60
REMARK   28  A    between atoms: _63  and  _65
REMARK   29  A    between atoms: _65  and  _66
REMARK   30  A    between atoms: _69  and  _71
REMARK   31  A    between atoms: _71  and  _72
REMARK   32  A    between atoms: _71  and  _74
REMARK   33  A    between atoms: _74  and  _75
REMARK   34  A    between atoms: _75  and  _76
REMARK   35  A    between atoms: _76  and  _77
REMARK   36  A    between atoms: _77  and  _78
REMARK   37  A    between atoms: _82  and  _84
REMARK   38  A    between atoms: _84  and  _85
REMARK   39  A    between atoms: _84  and  _87
REMARK   40  A    between atoms: _87  and  _88
REMARK   41  A    between atoms: _91  and  _93
REMARK   42  A    between atoms: _93  and  _94
REMARK   43  A    between atoms: _93  and  _96
REMARK   44  A    between atoms: _96  and  _97
REMARK   45  A    between atoms: _99  and  _101
REMARK   46  A    between atoms: _101  and  _102
REMARK   47  A    between atoms: _101  and  _104
REMARK   48  A    between atoms: _104  and  _105
REMARK   49  A    between atoms: _105  and  _106
REMARK   50  A    between atoms: _111  and  _113
REMARK   51  A    between atoms: _113  and  _114
REMARK   52  A    between atoms: _113  and  _116
REMARK   53  A    between atoms: _116  and  _117
REMARK   54  A    between atoms: _120  and  _122
REMARK   55  A    between atoms: _122  and  _123
REMARK   56  A    between atoms: _122  and  _125
REMARK   57  A    between atoms: _125  and  _126
REMARK   58  A    between atoms: _126  and  _127
REMARK   59  A    between atoms: _127  and  _128
REMARK   60  A    between atoms: _128  and  _129
REMARK   61  A    between atoms: _133  and  _135
REMARK   62  A    between atoms: _135  and  _136
REMARK   63  A    between atoms: _138  and  _140
REMARK   64  A    between atoms: _140  and  _141
REMARK   65  A    between atoms: _140  and  _143
REMARK   66  A    between atoms: _143  and  _144
REMARK   67  A    between atoms: _144  and  _145
REMARK   68  A    between atoms: _145  and  _146
REMARK   69  A    between atoms: _155  and  _157
REMARK   70  A    between atoms: _157  and  _158
REMARK   71  A    between atoms: _160  and  _162
REMARK   72  A    between atoms: _162  and  _163
REMARK   73  A    between atoms: _162  and  _165
REMARK   74  A    between atoms: _165  and  _166
REMARK   75  A    between atoms: _166  and  _167
REMARK   76  A    between atoms: _167  and  _168
REMARK   77  A    between atoms: _177  and  _179
REMARK   78  A    between atoms: _179  and  _180
REMARK   79  A    between atoms: _179  and  _182
REMARK   80  A    between atoms: _182  and  _183
REMARK   81  A    between atoms: _189  and  _191
REMARK   82  A    between atoms: _191  and  _192
REMARK   83  A    between atoms: _191  and  _194
REMARK   84  A    between atoms: _194  and  _195
REMARK   85  A    between atoms: _200  and  _202
REMARK   86  A    between atoms: _202  and  _203
REMARK   87  A    between atoms: _202  and  _205
REMARK   88  A    between atoms: _205  and  _206
REMARK   89  A    between atoms: _206  and  _207
REMARK   90  A    between atoms: _207  and  _208
REMARK   91  A    between atoms: _217  and  _219
REMARK   92  A    between atoms: _219  and  _220
REMARK   93  A    between atoms: _219  and  _222
REMARK   94  A    between atoms: _222  and  _223
REMARK   95  A    between atoms: _228  and  _230
REMARK   96  A    between atoms: _230  and  _231
REMARK   97  A    between atoms: _230  and  _233
REMARK   98  A    between atoms: _233  and  _234
REMARK   99  A    between atoms: _244  and  _246
REMARK  100  A    between atoms: _246  and  _247
REMARK  101  A    between atoms: _246  and  _249
REMARK  102  A    between atoms: _249  and  _250
REMARK  103  A    between atoms: _252  and  _254
REMARK  104  A    between atoms: _254  and  _255
REMARK  105  A    between atoms: _254  and  _257
REMARK  106  A    between atoms: _257  and  _258
REMARK  107  A    between atoms: _260  and  _262
REMARK  108  A    between atoms: _262  and  _263
REMARK  109  A    between atoms: _262  and  _265
REMARK  110  A    between atoms: _265  and  _266
REMARK  111  A    between atoms: _268  and  _270
REMARK  112  A    between atoms: _270  and  _271
REMARK  113  A    between atoms: _273  and  _275
REMARK  114  A    between atoms: _275  and  _276
REMARK  115  A    between atoms: _275  and  _278
REMARK  116  A    between atoms: _278  and  _279
REMARK  117  A    between atoms: _282  and  _284
REMARK  118  A    between atoms: _284  and  _285
REMARK  119  A    between atoms: _284  and  _287
REMARK  120  A    between atoms: _287  and  _288
REMARK  121  A    between atoms: _298  and  _300
REMARK  122  A    between atoms: _300  and  _301
REMARK  123  A    between atoms: _300  and  _303
REMARK  124  A    between atoms: _303  and  _304
REMARK  125  A    between atoms: _304  and  _305
REMARK  126  A    between atoms: _307  and  _309
REMARK  127  A    between atoms: _309  and  _310
REMARK  128  A    between atoms: _309  and  _312
REMARK  129  A    between atoms: _312  and  _313
REMARK  130  A    between atoms: _315  and  _317
REMARK  131  A    between atoms: _317  and  _318
REMARK  132  A    between atoms: _317  and  _320
REMARK  133  A    between atoms: _323  and  _325
REMARK  134  A    between atoms: _325  and  _326
REMARK  135  A    between atoms: _325  and  _328
REMARK  136  A    between atoms: _328  and  _329
REMARK  137  A    between atoms: _329  and  _330
REMARK  138  A    between atoms: _330  and  _331
REMARK  139  A    between atoms: _331  and  _332
REMARK  140  A    between atoms: _336  and  _338
REMARK  141  A    between atoms: _338  and  _339
REMARK  142  A    between atoms: _338  and  _341
REMARK  143  A    between atoms: _341  and  _342
REMARK  144  A    between atoms: _347  and  _349
REMARK  145  A    between atoms: _349  and  _350
REMARK  146  A    between atoms: _349  and  _352
REMARK  147  A    between atoms: _352  and  _353
REMARK  148  A    between atoms: _356  and  _358
REMARK  149  A    between atoms: _358  and  _359
REMARK  150  A    between atoms: _358  and  _361
REMARK  151  A    between atoms: _361  and  _362
REMARK  152  A    between atoms: _365  and  _367
REMARK  153  A    between atoms: _367  and  _368
REMARK  154  A    between atoms: _367  and  _370
REMARK  155  A    between atoms: _370  and  _371
REMARK  156  A    between atoms: _376  and  _377
REMARK  157  A    between atoms: _379  and  _381
REMARK  158  A    between atoms: _381  and  _382
REMARK  159  A    between atoms: _384  and  _386
REMARK  160  A    between atoms: _386  and  _387
REMARK  161  A    between atoms: _386  and  _389
REMARK  162  A    between atoms: _389  and  _390
REMARK  163  A    between atoms: _390  and  _391
REMARK  164  A    between atoms: _391  and  _392
REMARK  165  A    between atoms: _392  and  _393
REMARK  166  A    between atoms: _397  and  _399
REMARK  167  A    between atoms: _399  and  _400
REMARK  168  A    between atoms: _399  and  _402
REMARK  169  A    between atoms: _405  and  _407
REMARK  170  A    between atoms: _407  and  _408
REMARK  171  A    between atoms: _407  and  _410
REMARK  172  A    between atoms: _412  and  _414
REMARK  173  A    between atoms: _414  and  _415
REMARK  174  A    between atoms: _417  and  _419
REMARK  175  A    between atoms: _419  and  _420
REMARK  176  A    between atoms: _419  and  _422
REMARK  177  A    between atoms: _422  and  _423
REMARK  178  A    between atoms: _429  and  _431
REMARK  179  A    between atoms: _431  and  _432
REMARK  180  A    between atoms: _431  and  _434
REMARK  181  A    between atoms: _434  and  _435
REMARK  182  A    between atoms: _438  and  _440
REMARK  183  A    between atoms: _440  and  _441
REMARK  184  A    between atoms: _440  and  _443
REMARK  185  A    between atoms: _443  and  _444
REMARK  186  A    between atoms: _447  and  _449
REMARK  187  A    between atoms: _449  and  _450
REMARK  188  A    between atoms: _449  and  _452
REMARK  189  A    between atoms: _452  and  _453
REMARK  190  A    between atoms: _453  and  _454
REMARK  191  A    between atoms: _457  and  _459
REMARK  192  A    between atoms: _459  and  _460
REMARK  193  A    between atoms: _459  and  _462
REMARK  194  A    between atoms: _462  and  _463
REMARK  195  A    between atoms: _466  and  _468
REMARK  196  A    between atoms: _468  and  _469
REMARK  197  A    between atoms: _468  and  _471
REMARK  198  A    between atoms: _473  and  _475
REMARK  199  A    between atoms: _475  and  _476
REMARK  200  A    between atoms: _478  and  _480
REMARK  201  A    between atoms: _480  and  _481
REMARK  202  A    between atoms: _480  and  _483
REMARK  203  A    between atoms: _483  and  _484
REMARK  204  A    between atoms: _487  and  _489
REMARK  205  A    between atoms: _489  and  _490
REMARK  206  A    between atoms: _492  and  _494
REMARK  207  A    between atoms: _494  and  _495
REMARK  208  A    between atoms: _494  and  _497
REMARK  209  A    between atoms: _497  and  _498
REMARK  210  A    between atoms: _501  and  _503
REMARK  211  A    between atoms: _503  and  _504
REMARK  212  A    between atoms: _503  and  _506
REMARK  213  A    between atoms: _506  and  _507
REMARK  214  A    between atoms: _512  and  _514
REMARK  215  A    between atoms: _514  and  _515
REMARK  216  A    between atoms: _514  and  _517
REMARK  217  A    between atoms: _517  and  _518
REMARK  218  A    between atoms: _521  and  _523
REMARK  219  A    between atoms: _523  and  _524
REMARK  220  A    between atoms: _523  and  _526
REMARK  221  A    between atoms: _526  and  _527
REMARK  222  A    between atoms: _527  and  _528
REMARK  223  A    between atoms: _533  and  _535
REMARK  224  A    between atoms: _535  and  _536
REMARK  225  A    between atoms: _535  and  _538
REMARK  226  A    between atoms: _538  and  _539
REMARK  227  A    between atoms: _545  and  _547
REMARK  228  A    between atoms: _547  and  _548
REMARK  229  A    between atoms: _547  and  _550
REMARK  230  A    between atoms: _550  and  _551
REMARK  231  A    between atoms: _554  and  _556
REMARK  232  A    between atoms: _556  and  _557
REMARK  233  A    between atoms: _556  and  _559
REMARK  234  A    between atoms: _559  and  _560
REMARK  235  A    between atoms: _562  and  _564
REMARK  236  A    between atoms: _564  and  _565
REMARK  237  A    between atoms: _564  and  _567
REMARK  238  A    between atoms: _567  and  _568
REMARK  239  A    between atoms: _571  and  _573
REMARK  240  A    between atoms: _573  and  _574
REMARK  241  A    between atoms: _573  and  _576
REMARK  242  A    between atoms: _576  and  _577
REMARK  243  A    between atoms: _577  and  _578
REMARK  244  A    between atoms: _578  and  _579
REMARK  245  A    between atoms: _588  and  _590
REMARK  246  A    between atoms: _590  and  _591
REMARK  247  A    between atoms: _590  and  _593
REMARK  248  A    between atoms: _593  and  _594
REMARK  249  A    between atoms: _594  and  _595
REMARK  250  A    between atoms: _595  and  _596
REMARK  251  A    between atoms: _605  and  _607
REMARK  252  A    between atoms: _607  and  _608
REMARK  253  A    between atoms: _611  and  _613
REMARK  254  A    between atoms: _613  and  _614
REMARK  255  A    between atoms: _613  and  _616
REMARK  256  A    between atoms: _616  and  _617
REMARK  257  A    between atoms: _620  and  _622
REMARK  258  A    between atoms: _622  and  _623
REMARK  259  A    between atoms: _622  and  _625
REMARK  260  A    between atoms: _625  and  _626
REMARK  261  A    between atoms: _628  and  _630
REMARK  262  A    between atoms: _630  and  _631
REMARK  263  A    between atoms: _630  and  _633
REMARK  264  A    between atoms: _633  and  _634
REMARK  265  A    between atoms: _637  and  _639
REMARK  266  A    between atoms: _639  and  _640
REMARK  267  A    between atoms: _639  and  _642
REMARK  268  A    between atoms: _642  and  _643
REMARK  269  A    between atoms: _646  and  _648
REMARK  270  A    between atoms: _648  and  _649
REMARK  271  A    between atoms: _648  and  _651
REMARK  272  A    between atoms: _651  and  _652
REMARK  273  A    between atoms: _655  and  _657
REMARK  274  A    between atoms: _657  and  _658
REMARK  275  A    between atoms: _657  and  _660
REMARK  276  A    between atoms: _660  and  _661
REMARK                            x       y       z     vdW  Elec       q    Type
REMARK                         _______ _______ _______ _____ _____    ______ ____
ROOT
ATOM      1  C   ILE A   2      56.239  30.065  20.838  0.00  0.00    +0.241 C 
ATOM      2  N   ARG A   3      56.598  31.145  21.533  0.00  0.00    -0.298 N 
ATOM      3  H   ARG A   3      57.557  31.193  21.933  0.00  0.00    +0.150 HD
ATOM      4  O   ILE A   2      55.197  30.019  20.123  0.00  0.00    -0.273 OA
ENDROOT
BRANCH   1   5
ATOM      5  CA  ILE A   2      57.159  28.839  20.971  0.00  0.00    +0.148 C 
BRANCH   5   7
ATOM      6  C   SER A   1      59.563  28.912  21.325  0.00  0.00    +0.241 C 
ATOM      7  N   ILE A   2      58.329  29.005  21.828  0.00  0.00    -0.297 N 
ATOM      8  H   ILE A   2      58.200  29.198  22.842  0.00  0.00    +0.150 HD
ATOM      9  O   SER A   1      59.776  28.694  20.135  0.00  0.00    -0.274 OA
BRANCH   6  10
ATOM     10  CA  SER A   1      60.759  29.096  22.279  0.00  0.00    +0.174 C 
BRANCH  10  11
ATOM     11  N   SER A   1      60.485  30.009  23.407  0.00  0.00    -0.236 NA
ATOM     12  H   SER A   1      60.634  29.643  24.369  0.00  0.00    +0.142 HD
ENDBRANCH  10  11
BRANCH  10  13
ATOM     13  CB  SER A   1      61.152  27.708  22.807  0.00  0.00    +0.163 C 
BRANCH  13  14
ATOM     14  OG  SER A   1      59.993  27.066  23.400  0.00  0.00    -0.380 OA
ATOM     15  H   SER A   1      59.657  27.620  24.148  0.00  0.00    +0.211 HD
ENDBRANCH  13  14
ENDBRANCH  10  13
ENDBRANCH   6  10
ENDBRANCH   5   7
BRANCH   5  16
ATOM     16  CB  ILE A   2      56.292  27.565  21.385  0.00  0.00    +0.027 C 
ATOM     17  CG2 ILE A   2      57.170  26.285  21.522  0.00  0.00    +0.002 C 
BRANCH  16  18
ATOM     18  CG1 ILE A   2      55.472  27.832  22.644  0.00  0.00    +0.002 C 
ATOM     19  CD1 ILE A   2      54.505  26.743  22.974  0.00  0.00    +0.000 C 
ENDBRANCH  16  18
ENDBRANCH   5  16
ENDBRANCH   1   5
BRANCH   2  20
ATOM     20  CA  ARG A   3      55.682  32.261  21.748  0.00  0.00    +0.137 C 
BRANCH  20  21
ATOM     21  C   ARG A   3      55.273  32.963  20.449  0.00  0.00    +0.227 C 
ATOM     22  O   ARG A   3      54.138  33.381  20.331  0.00  0.00    -0.286 OA
ENDBRANCH  20  21
BRANCH  20  23
ATOM     23  CB  ARG A   3      56.242  33.242  22.786  0.00  0.00    +0.031 C 
BRANCH  23  24
ATOM     24  CG  ARG A   3      55.412  34.540  22.996  0.00  0.00    +0.045 C 
BRANCH  24  25
ATOM     25  CD  ARG A   3      56.040  35.449  24.048  0.00  0.00    +0.174 C 
BRANCH  25  26
ATOM     26  NE  ARG A   3      56.434  34.671  25.215  0.00  0.00    -0.265 N 
ATOM     27  CZ  ARG A   3      57.468  34.917  26.021  0.00  0.00    +0.342 C 
ATOM     28  NH2 ARG A   3      57.667  34.083  27.044  0.00  0.00    -0.292 N 
ATOM     29 HH21 ARG A   3      58.462  34.240  27.696  0.00  0.00    +0.255 HD
ATOM     30 HH22 ARG A   3      57.027  33.276  27.189  0.00  0.00    +0.255 HD
ATOM     31  NH1 ARG A   3      58.291  35.953  25.816  0.00  0.00    -0.292 N 
ATOM     32 HH11 ARG A   3      59.089  36.119  26.462  0.00  0.00    +0.255 HD
ATOM     33 HH12 ARG A   3      58.132  36.592  25.011  0.00  0.00    +0.255 HD
ATOM     34  HE  ARG A   3      55.851  33.841  25.442  0.00  0.00    +0.259 HD
ENDBRANCH  25  26
ENDBRANCH  24  25
ENDBRANCH  23  24
ENDBRANCH  20  23
ENDBRANCH   2  20
TORSDOF 14
REMARK  Name = ../refined-set-2016/4dq2/4dq2_pocket.pdb
REMARK  276 active torsions:
REMARK  status: ('A' for Active; 'I' for Inactive)
REMARK    1  A    between atoms: _1  and  _3
REMARK    2  A    between atoms: _3  and  _4
REMARK    3  A    between atoms: _3  and  _6
REMARK    4  A    between atoms: _6  and  _7
REMARK    5  A    between atoms: _10  and  _12
REMARK    6  A    between atoms: _12  and  _13
REMARK    7  A    between atoms: _12  and  _15
REMARK    8  A    between atoms: _15  and  _16
REMARK    9  A    between atoms: _19  and  _21
REMARK   10  A    between atoms: _21  and  _22
REMARK   11  A    between atoms: _21  and  _24
REMARK   12  A    between atoms: _24  and  _25
REMARK   13  A    between atoms: _27  and  _29
REMARK   14  A    between atoms: _29  and  _30
REMARK   15  A    between atoms: _29  and  _32
REMARK   16  A    between atoms: _32  and  _33
REMARK   17  A    between atoms: _36  and  _38
REMARK   18  A    between atoms: _38  and  _39
REMARK   19  A    between atoms: _38  and  _41
REMARK   20  A    between atoms: _41  and  _42
REMARK   21  A    between atoms: _42  and  _43
REMARK   22  A    between atoms: _48  and  _50
REMARK   23  A    between atoms: _50  and  _51
REMARK   24  A    between atoms: _50  and  _53
REMARK   25  A    between atoms: _53  and  _54
REMARK   26  A    between atoms: _57  and  _59
REMARK   27  A    between atoms: _59  and  _60
REMARK   28  A    between atoms: _63  and  _65
REMARK   29  A    between atoms: _65  and  _66
REMARK   30  A    between atoms: _69  and  _71
REMARK   31  A    between atoms: _71  and  _72
REMARK   32  A    between atoms: _71  and  _74
REMARK   33  A    between atoms: _74  and  _75
REMARK   34  A    between atoms: _75  and  _76
REMARK   35  A    between atoms: _76  and  _77
REMARK   36  A    between atoms: _77  and  _78
REMARK   37  A    between atoms: _82  and  _84
REMARK   38  A    between atoms: _84  and  _85
REMARK   39  A    between atoms: _84  and  _87
REMARK   40  A    between atoms: _87  and  _88
REMARK   41  A    between atoms: _91  and  _93
REMARK   42  A    between atoms: _93  and  _94
REMARK   43  A    between atoms: _93  and  _96
REMARK   44  A    between atoms: _96  and  _97
REMARK   45  A    between atoms: _99  and  _101
REMARK   46  A    between atoms: _101  and  _102
REMARK   47  A    between atoms: _101  and  _104
REMARK   48  A    between atoms: _104  and  _105
REMARK   49  A    between atoms: _105  and  _106
REMARK   50  A    between atoms: _111  and  _113
REMARK   51  A    between atoms: _113  and  _114
REMARK   52  A    between atoms: _113  and  _116
REMARK   53  A    between atoms: _116  and  _117
REMARK   54  A    between atoms: _120  and  _122
REMARK   55  A    between atoms: _122  and  _123
REMARK   56  A    between atoms: _122  and  _125
REMARK   57  A    between atoms: _125  and  _126
REMARK   58  A    between atoms: _126  and  _127
REMARK   59  A    between atoms: _127  and  _128
REMARK   60  A    between atoms: _128  and  _129
REMARK   61  A    between atoms: _133  and  _135
REMARK   62  A    between atoms: _135  and  _136
REMARK   63  A    between atoms: _138  and  _140
REMARK   64  A    between atoms: _140  and  _141
REMARK   65  A    between atoms: _140  and  _143
REMARK   66  A    between atoms: _143  and  _144
REMARK   67  A    between atoms: _144  and  _145
REMARK   68  A    between atoms: _145  and  _146
REMARK   69  A    between atoms: _155  and  _157
REMARK   70  A    between atoms: _157  and  _158
REMARK   71  A    between atoms: _160  and  _162
REMARK   72  A    between atoms: _162  and  _163
REMARK   73  A    between atoms: _162  and  _165
REMARK   74  A    between atoms: _165  and  _166
REMARK   75  A    between atoms: _166  and  _167
REMARK   76  A    between atoms: _167  and  _168
REMARK   77  A    between atoms: _177  and  _179
REMARK   78  A    between atoms: _179  and  _180
REMARK   79  A    between atoms: _179  and  _182
REMARK   80  A    between atoms: _182  and  _183
REMARK   81  A    between atoms: _189  and  _191
REMARK   82  A    between atoms: _191  and  _192
REMARK   83  A    between atoms: _191  and  _194
REMARK   84  A    between atoms: _194  and  _195
REMARK   85  A    between atoms: _200  and  _202
REMARK   86  A    between atoms: _202  and  _203
REMARK   87  A    between atoms: _202  and  _205
REMARK   88  A    between atoms: _205  and  _206
REMARK   89  A    between atoms: _206  and  _207
REMARK   90  A    between atoms: _207  and  _208
REMARK   91  A    between atoms: _217  and  _219
REMARK   92  A    between atoms: _219  and  _220
REMARK   93  A    between atoms: _219  and  _222
REMARK   94  A    between atoms: _222  and  _223
REMARK   95  A    between atoms: _228  and  _230
REMARK   96  A    between atoms: _230  and  _231
REMARK   97  A    between atoms: _230  and  _233
REMARK   98  A    between atoms: _233  and  _234
REMARK   99  A    between atoms: _244  and  _246
REMARK  100  A    between atoms: _246  and  _247
REMARK  101  A    between atoms: _246  and  _249
REMARK  102  A    between atoms: _249  and  _250
REMARK  103  A    between atoms: _252  and  _254
REMARK  104  A    between atoms: _254  and  _255
REMARK  105  A    between atoms: _254  and  _257
REMARK  106  A    between atoms: _257  and  _258
REMARK  107  A    between atoms: _260  and  _262
REMARK  108  A    between atoms: _262  and  _263
REMARK  109  A    between atoms: _262  and  _265
REMARK  110  A    between atoms: _265  and  _266
REMARK  111  A    between atoms: _268  and  _270
REMARK  112  A    between atoms: _270  and  _271
REMARK  113  A    between atoms: _273  and  _275
REMARK  114  A    between atoms: _275  and  _276
REMARK  115  A    between atoms: _275  and  _278
REMARK  116  A    between atoms: _278  and  _279
REMARK  117  A    between atoms: _282  and  _284
REMARK  118  A    between atoms: _284  and  _285
REMARK  119  A    between atoms: _284  and  _287
REMARK  120  A    between atoms: _287  and  _288
REMARK  121  A    between atoms: _298  and  _300
REMARK  122  A    between atoms: _300  and  _301
REMARK  123  A    between atoms: _300  and  _303
REMARK  124  A    between atoms: _303  and  _304
REMARK  125  A    between atoms: _304  and  _305
REMARK  126  A    between atoms: _307  and  _309
REMARK  127  A    between atoms: _309  and  _310
REMARK  128  A    between atoms: _309  and  _312
REMARK  129  A    between atoms: _312  and  _313
REMARK  130  A    between atoms: _315  and  _317
REMARK  131  A    between atoms: _317  and  _318
REMARK  132  A    between atoms: _317  and  _320
REMARK  133  A    between atoms: _323  and  _325
REMARK  134  A    between atoms: _325  and  _326
REMARK  135  A    between atoms: _325  and  _328
REMARK  136  A    between atoms: _328  and  _329
REMARK  137  A    between atoms: _329  and  _330
REMARK  138  A    between atoms: _330  and  _331
REMARK  139  A    between atoms: _331  and  _332
REMARK  140  A    between atoms: _336  and  _338
REMARK  141  A    between atoms: _338  and  _339
REMARK  142  A    between atoms: _338  and  _341
REMARK  143  A    between atoms: _341  and  _342
REMARK  144  A    between atoms: _347  and  _349
REMARK  145  A    between atoms: _349  and  _350
REMARK  146  A    between atoms: _349  and  _352
REMARK  147  A    between atoms: _352  and  _353
REMARK  148  A    between atoms: _356  and  _358
REMARK  149  A    between atoms: _358  and  _359
REMARK  150  A    between atoms: _358  and  _361
REMARK  151  A    between atoms: _361  and  _362
REMARK  152  A    between atoms: _365  and  _367
REMARK  153  A    between atoms: _367  and  _368
REMARK  154  A    between atoms: _367  and  _370
REMARK  155  A    between atoms: _370  and  _371
REMARK  156  A    between atoms: _376  and  _377
REMARK  157  A    between atoms: _379  and  _381
REMARK  158  A    between atoms: _381  and  _382
REMARK  159  A    between atoms: _384  and  _386
REMARK  160  A    between atoms: _386  and  _387
REMARK  161  A    between atoms: _386  and  _389
REMARK  162  A    between atoms: _389  and  _390
REMARK  163  A    between atoms: _390  and  _391
REMARK  164  A    between atoms: _391  and  _392
REMARK  165  A    between atoms: _392  and  _393
REMARK  166  A    between atoms: _397  and  _399
REMARK  167  A    between atoms: _399  and  _400
REMARK  168  A    between atoms: _399  and  _402
REMARK  169  A    between atoms: _405  and  _407
REMARK  170  A    between atoms: _407  and  _408
REMARK  171  A    between atoms: _407  and  _410
REMARK  172  A    between atoms: _412  and  _414
REMARK  173  A    between atoms: _414  and  _415
REMARK  174  A    between atoms: _417  and  _419
REMARK  175  A    between atoms: _419  and  _420
REMARK  176  A    between atoms: _419  and  _422
REMARK  177  A    between atoms: _422  and  _423
REMARK  178  A    between atoms: _429  and  _431
REMARK  179  A    between atoms: _431  and  _432
REMARK  180  A    between atoms: _431  and  _434
REMARK  181  A    between atoms: _434  and  _435
REMARK  182  A    between atoms: _438  and  _440
REMARK  183  A    between atoms: _440  and  _441
REMARK  184  A    between atoms: _440  and  _443
REMARK  185  A    between atoms: _443  and  _444
REMARK  186  A    between atoms: _447  and  _449
REMARK  187  A    between atoms: _449  and  _450
REMARK  188  A    between atoms: _449  and  _452
REMARK  189  A    between atoms: _452  and  _453
REMARK  190  A    between atoms: _453  and  _454
REMARK  191  A    between atoms: _457  and  _459
REMARK  192  A    between atoms: _459  and  _460
REMARK  193  A    between atoms: _459  and  _462
REMARK  194  A    between atoms: _462  and  _463
REMARK  195  A    between atoms: _466  and  _468
REMARK  196  A    between atoms: _468  and  _469
REMARK  197  A    between atoms: _468  and  _471
REMARK  198  A    between atoms: _473  and  _475
REMARK  199  A    between atoms: _475  and  _476
REMARK  200  A    between atoms: _478  and  _480
REMARK  201  A    between atoms: _480  and  _481
REMARK  202  A    between atoms: _480  and  _483
REMARK  203  A    between atoms: _483  and  _484
REMARK  204  A    between atoms: _487  and  _489
REMARK  205  A    between atoms: _489  and  _490
REMARK  206  A    between atoms: _492  and  _494
REMARK  207  A    between atoms: _494  and  _495
REMARK  208  A    between atoms: _494  and  _497
REMARK  209  A    between atoms: _497  and  _498
REMARK  210  A    between atoms: _501  and  _503
REMARK  211  A    between atoms: _503  and  _504
REMARK  212  A    between atoms: _503  and  _506
REMARK  213  A    between atoms: _506  and  _507
REMARK  214  A    between atoms: _512  and  _514
REMARK  215  A    between atoms: _514  and  _515
REMARK  216  A    between atoms: _514  and  _517
REMARK  217  A    between atoms: _517  and  _518
REMARK  218  A    between atoms: _521  and  _523
REMARK  219  A    between atoms: _523  and  _524
REMARK  220  A    between atoms: _523  and  _526
REMARK  221  A    between atoms: _526  and  _527
REMARK  222  A    between atoms: _527  and  _528
REMARK  223  A    between atoms: _533  and  _535
REMARK  224  A    between atoms: _535  and  _536
REMARK  225  A    between atoms: _535  and  _538
REMARK  226  A    between atoms: _538  and  _539
REMARK  227  A    between atoms: _545  and  _547
REMARK  228  A    between atoms: _547  and  _548
REMARK  229  A    between atoms: _547  and  _550
REMARK  230  A    between atoms: _550  and  _551
REMARK  231  A    between atoms: _554  and  _556
REMARK  232  A    between atoms: _556  and  _557
REMARK  233  A    between atoms: _556  and  _559
REMARK  234  A    between atoms: _559  and  _560
REMARK  235  A    between atoms: _562  and  _564
REMARK  236  A    between atoms: _564  and  _565
REMARK  237  A    between atoms: _564  and  _567
REMARK  238  A    between atoms: _567  and  _568
REMARK  239  A    between atoms: _571  and  _573
REMARK  240  A    between atoms: _573  and  _574
REMARK  241  A    between atoms: _573  and  _576
REMARK  242  A    between atoms: _576  and  _577
REMARK  243  A    between atoms: _577  and  _578
REMARK  244  A    between atoms: _578  and  _579
REMARK  245  A    between atoms: _588  and  _590
REMARK  246  A    between atoms: _590  and  _591
REMARK  247  A    between atoms: _590  and  _593
REMARK  248  A    between atoms: _593  and  _594
REMARK  249  A    between atoms: _594  and  _595
REMARK  250  A    between atoms: _595  and  _596
REMARK  251  A    between atoms: _605  and  _607
REMARK  252  A    between atoms: _607  and  _608
REMARK  253  A    between atoms: _611  and  _613
REMARK  254  A    between atoms: _613  and  _614
REMARK  255  A    between atoms: _613  and  _616
REMARK  256  A    between atoms: _616  and  _617
REMARK  257  A    between atoms: _620  and  _622
REMARK  258  A    between atoms: _622  and  _623
REMARK  259  A    between atoms: _622  and  _625
REMARK  260  A    between atoms: _625  and  _626
REMARK  261  A    between atoms: _628  and  _630
REMARK  262  A    between atoms: _630  and  _631
REMARK  263  A    between atoms: _630  and  _633
REMARK  264  A    between atoms: _633  and  _634
REMARK  265  A    between atoms: _637  and  _639
REMARK  266  A    between atoms: _639  and  _640
REMARK  267  A    between atoms: _639  and  _642
REMARK  268  A    between atoms: _642  and  _643
REMARK  269  A    between atoms: _646  and  _648
REMARK  270  A    between atoms: _648  and  _649
REMARK  271  A    between atoms: _648  and  _651
REMARK  272  A    between atoms: _651  and  _652
REMARK  273  A    between atoms: _655  and  _657
REMARK  274  A    between atoms: _657  and  _658
REMARK  275  A    between atoms: _657  and  _660
REMARK  276  A    between atoms: _660  and  _661
REMARK                            x       y       z     vdW  Elec       q    Type
REMARK                         _______ _______ _______ _____ _____    ______ ____
ROOT
ATOM      1  CA  ALA A   2      51.407  29.903  19.491  0.00  0.00    +0.149 C 
ATOM      2  CB  ALA A   2      51.976  29.295  20.752  0.00  0.00    +0.031 C 
ENDROOT
BRANCH   1   4
ATOM      3  C   ARG A   1      52.924  29.872  17.557  0.00  0.00    +0.238 C 
ATOM      4  N   ALA A   2      52.499  30.485  18.670  0.00  0.00    -0.297 N 
ATOM      5  H   ALA A   2      52.940  31.380  18.963  0.00  0.00    +0.150 HD
ATOM      6  O   ARG A   1      52.464  28.792  17.180  0.00  0.00    -0.274 OA
BRANCH   3   7
ATOM      7  CA  ARG A   1      54.045  30.569  16.739  0.00  0.00    +0.145 C 
BRANCH   7   8
ATOM      8  N   ARG A   1      54.910  31.468  17.533  0.00  0.00    -0.238 NA
ATOM      9  H   ARG A   1      55.484  31.083  18.310  0.00  0.00    +0.142 HD
ENDBRANCH   7   8
BRANCH   7  10
ATOM     10  CB  ARG A   1      54.862  29.575  15.866  0.00  0.00    +0.030 C 
BRANCH  10  11
ATOM     11  CG  ARG A   1      55.994  28.932  16.567  0.00  0.00    +0.045 C 
BRANCH  11  12
ATOM     12  CD  ARG A   1      56.878  28.134  15.615  0.00  0.00    +0.174 C 
BRANCH  12  13
ATOM     13  NE  ARG A   1      58.069  27.634  16.323  0.00  0.00    -0.265 N 
ATOM     14  CZ  ARG A   1      58.113  26.557  17.130  0.00  0.00    +0.342 C 
ATOM     15  NH2 ARG A   1      59.264  26.196  17.735  0.00  0.00    -0.292 N 
ATOM     16 HH21 ARG A   1      59.286  25.362  18.356  0.00  0.00    +0.255 HD
ATOM     17 HH22 ARG A   1      60.129  26.752  17.580  0.00  0.00    +0.255 HD
ATOM     18  NH1 ARG A   1      57.006  25.825  17.334  0.00  0.00    -0.292 N 
ATOM     19 HH11 ARG A   1      57.040  24.993  17.957  0.00  0.00    +0.255 HD
ATOM     20 HH12 ARG A   1      56.114  26.090  16.869  0.00  0.00    +0.255 HD
ATOM     21  HE  ARG A   1      58.956  28.160  16.187  0.00  0.00    +0.259 HD
ENDBRANCH  12  13
ENDBRANCH  11  12
ENDBRANCH  10  11
ENDBRANCH   7  10
ENDBRANCH   3   7
ENDBRANCH   1   4
BRANCH   1  22
ATOM     22  C   ALA A   2      50.340  30.915  19.865  0.00  0.00    +0.241 C 
ATOM     23  O   ALA A   2      50.632  32.077  20.026  0.00  0.00    -0.273 OA
ATOM     24  N   THR A   3      49.089  30.495  19.996  0.00  0.00    -0.295 N 
ATOM     25  H   THR A   3      48.842  29.505  19.794  0.00  0.00    +0.150 HD
BRANCH  24  26
ATOM     26  CA  THR A   3      48.090  31.416  20.416  0.00  0.00    +0.176 C 
BRANCH  26  27
ATOM     27  C   THR A   3      46.985  30.699  21.203  0.00  0.00    +0.243 C 
ATOM     28  N   SER A   4      46.036  31.449  21.739  0.00  0.00    -0.296 N 
ATOM     29  H   SER A   4      46.025  32.480  21.604  0.00  0.00    +0.150 HD
ATOM     30  O   THR A   3      47.009  29.443  21.315  0.00  0.00    -0.273 OA
BRANCH  28  31
ATOM     31  CA  SER A   4      45.020  30.789  22.515  0.00  0.00    +0.166 C 
BRANCH  31  32
ATOM     32  CB  SER A   4      43.680  31.293  22.067  0.00  0.00    +0.229 C 
ATOM     33  OG  SER A   4      43.618  32.345  21.428  0.00  0.00    -0.286 OA
ENDBRANCH  31  32
BRANCH  31  34
ATOM     34  C   SER A   4      45.230  31.078  24.015  0.00  0.00    +0.165 C 
BRANCH  34  35
ATOM     35  O   SER A   4      44.897  32.427  24.325  0.00  0.00    -0.380 OA
ATOM     36  H   SER A   4      45.040  32.587  25.291  0.00  0.00    +0.211 HD
ENDBRANCH  34  35
ENDBRANCH  31  34
ENDBRANCH  28  31
ENDBRANCH  26  27
BRANCH  26  37
ATOM     37  CB  THR A   3      47.538  32.257  19.269  0.00  0.00    +0.137 C 
ATOM     38  CG2 THR A   3      46.661  31.445  18.282  0.00  0.00    +0.034 C 
BRANCH  37  39
ATOM     39  OG1 THR A   3      46.760  33.318  19.842  0.00  0.00    -0.382 OA
ATOM     40  HG1 THR A   3      46.388  33.881  19.118  0.00  0.00    +0.210 HD
ENDBRANCH  37  39
ENDBRANCH  26  37
ENDBRANCH  24  26
ENDBRANCH   1  22
TORSDOF 16
REMARK  Name = ../refined-set-2016/4dq2/4dq2_pocket.pdb
REMARK  276 active torsions:
REMARK  status: ('A' for Active; 'I' for Inactive)
REMARK    1  A    between atoms: _1  and  _3
REMARK    2  A    between atoms: _3  and  _4
REMARK    3  A    between atoms: _3  and  _6
REMARK    4  A    between atoms: _6  and  _7
REMARK    5  A    between atoms: _10  and  _12
REMARK    6  A    between atoms: _12  and  _13
REMARK    7  A    between atoms: _12  and  _15
REMARK    8  A    between atoms: _15  and  _16
REMARK    9  A    between atoms: _19  and  _21
REMARK   10  A    between atoms: _21  and  _22
REMARK   11  A    between atoms: _21  and  _24
REMARK   12  A    between atoms: _24  and  _25
REMARK   13  A    between atoms: _27  and  _29
REMARK   14  A    between atoms: _29  and  _30
REMARK   15  A    between atoms: _29  and  _32
REMARK   16  A    between atoms: _32  and  _33
REMARK   17  A    between atoms: _36  and  _38
REMARK   18  A    between atoms: _38  and  _39
REMARK   19  A    between atoms: _38  and  _41
REMARK   20  A    between atoms: _41  and  _42
REMARK   21  A    between atoms: _42  and  _43
REMARK   22  A    between atoms: _48  and  _50
REMARK   23  A    between atoms: _50  and  _51
REMARK   24  A    between atoms: _50  and  _53
REMARK   25  A    between atoms: _53  and  _54
REMARK   26  A    between atoms: _57  and  _59
REMARK   27  A    between atoms: _59  and  _60
REMARK   28  A    between atoms: _63  and  _65
REMARK   29  A    between atoms: _65  and  _66
REMARK   30  A    between atoms: _69  and  _71
REMARK   31  A    between atoms: _71  and  _72
REMARK   32  A    between atoms: _71  and  _74
REMARK   33  A    between atoms: _74  and  _75
REMARK   34  A    between atoms: _75  and  _76
REMARK   35  A    between atoms: _76  and  _77
REMARK   36  A    between atoms: _77  and  _78
REMARK   37  A    between atoms: _82  and  _84
REMARK   38  A    between atoms: _84  and  _85
REMARK   39  A    between atoms: _84  and  _87
REMARK   40  A    between atoms: _87  and  _88
REMARK   41  A    between atoms: _91  and  _93
REMARK   42  A    between atoms: _93  and  _94
REMARK   43  A    between atoms: _93  and  _96
REMARK   44  A    between atoms: _96  and  _97
REMARK   45  A    between atoms: _99  and  _101
REMARK   46  A    between atoms: _101  and  _102
REMARK   47  A    between atoms: _101  and  _104
REMARK   48  A    between atoms: _104  and  _105
REMARK   49  A    between atoms: _105  and  _106
REMARK   50  A    between atoms: _111  and  _113
REMARK   51  A    between atoms: _113  and  _114
REMARK   52  A    between atoms: _113  and  _116
REMARK   53  A    between atoms: _116  and  _117
REMARK   54  A    between atoms: _120  and  _122
REMARK   55  A    between atoms: _122  and  _123
REMARK   56  A    between atoms: _122  and  _125
REMARK   57  A    between atoms: _125  and  _126
REMARK   58  A    between atoms: _126  and  _127
REMARK   59  A    between atoms: _127  and  _128
REMARK   60  A    between atoms: _128  and  _129
REMARK   61  A    between atoms: _133  and  _135
REMARK   62  A    between atoms: _135  and  _136
REMARK   63  A    between atoms: _138  and  _140
REMARK   64  A    between atoms: _140  and  _141
REMARK   65  A    between atoms: _140  and  _143
REMARK   66  A    between atoms: _143  and  _144
REMARK   67  A    between atoms: _144  and  _145
REMARK   68  A    between atoms: _145  and  _146
REMARK   69  A    between atoms: _155  and  _157
REMARK   70  A    between atoms: _157  and  _158
REMARK   71  A    between atoms: _160  and  _162
REMARK   72  A    between atoms: _162  and  _163
REMARK   73  A    between atoms: _162  and  _165
REMARK   74  A    between atoms: _165  and  _166
REMARK   75  A    between atoms: _166  and  _167
REMARK   76  A    between atoms: _167  and  _168
REMARK   77  A    between atoms: _177  and  _179
REMARK   78  A    between atoms: _179  and  _180
REMARK   79  A    between atoms: _179  and  _182
REMARK   80  A    between atoms: _182  and  _183
REMARK   81  A    between atoms: _189  and  _191
REMARK   82  A    between atoms: _191  and  _192
REMARK   83  A    between atoms: _191  and  _194
REMARK   84  A    between atoms: _194  and  _195
REMARK   85  A    between atoms: _200  and  _202
REMARK   86  A    between atoms: _202  and  _203
REMARK   87  A    between atoms: _202  and  _205
REMARK   88  A    between atoms: _205  and  _206
REMARK   89  A    between atoms: _206  and  _207
REMARK   90  A    between atoms: _207  and  _208
REMARK   91  A    between atoms: _217  and  _219
REMARK   92  A    between atoms: _219  and  _220
REMARK   93  A    between atoms: _219  and  _222
REMARK   94  A    between atoms: _222  and  _223
REMARK   95  A    between atoms: _228  and  _230
REMARK   96  A    between atoms: _230  and  _231
REMARK   97  A    between atoms: _230  and  _233
REMARK   98  A    between atoms: _233  and  _234
REMARK   99  A    between atoms: _244  and  _246
REMARK  100  A    between atoms: _246  and  _247
REMARK  101  A    between atoms: _246  and  _249
REMARK  102  A    between atoms: _249  and  _250
REMARK  103  A    between atoms: _252  and  _254
REMARK  104  A    between atoms: _254  and  _255
REMARK  105  A    between atoms: _254  and  _257
REMARK  106  A    between atoms: _257  and  _258
REMARK  107  A    between atoms: _260  and  _262
REMARK  108  A    between atoms: _262  and  _263
REMARK  109  A    between atoms: _262  and  _265
REMARK  110  A    between atoms: _265  and  _266
REMARK  111  A    between atoms: _268  and  _270
REMARK  112  A    between atoms: _270  and  _271
REMARK  113  A    between atoms: _273  and  _275
REMARK  114  A    between atoms: _275  and  _276
REMARK  115  A    between atoms: _275  and  _278
REMARK  116  A    between atoms: _278  and  _279
REMARK  117  A    between atoms: _282  and  _284
REMARK  118  A    between atoms: _284  and  _285
REMARK  119  A    between atoms: _284  and  _287
REMARK  120  A    between atoms: _287  and  _288
REMARK  121  A    between atoms: _298  and  _300
REMARK  122  A    between atoms: _300  and  _301
REMARK  123  A    between atoms: _300  and  _303
REMARK  124  A    between atoms: _303  and  _304
REMARK  125  A    between atoms: _304  and  _305
REMARK  126  A    between atoms: _307  and  _309
REMARK  127  A    between atoms: _309  and  _310
REMARK  128  A    between atoms: _309  and  _312
REMARK  129  A    between atoms: _312  and  _313
REMARK  130  A    between atoms: _315  and  _317
REMARK  131  A    between atoms: _317  and  _318
REMARK  132  A    between atoms: _317  and  _320
REMARK  133  A    between atoms: _323  and  _325
REMARK  134  A    between atoms: _325  and  _326
REMARK  135  A    between atoms: _325  and  _328
REMARK  136  A    between atoms: _328  and  _329
REMARK  137  A    between atoms: _329  and  _330
REMARK  138  A    between atoms: _330  and  _331
REMARK  139  A    between atoms: _331  and  _332
REMARK  140  A    between atoms: _336  and  _338
REMARK  141  A    between atoms: _338  and  _339
REMARK  142  A    between atoms: _338  and  _341
REMARK  143  A    between atoms: _341  and  _342
REMARK  144  A    between atoms: _347  and  _349
REMARK  145  A    between atoms: _349  and  _350
REMARK  146  A    between atoms: _349  and  _352
REMARK  147  A    between atoms: _352  and  _353
REMARK  148  A    between atoms: _356  and  _358
REMARK  149  A    between atoms: _358  and  _359
REMARK  150  A    between atoms: _358  and  _361
REMARK  151  A    between atoms: _361  and  _362
REMARK  152  A    between atoms: _365  and  _367
REMARK  153  A    between atoms: _367  and  _368
REMARK  154  A    between atoms: _367  and  _370
REMARK  155  A    between atoms: _370  and  _371
REMARK  156  A    between atoms: _376  and  _377
REMARK  157  A    between atoms: _379  and  _381
REMARK  158  A    between atoms: _381  and  _382
REMARK  159  A    between atoms: _384  and  _386
REMARK  160  A    between atoms: _386  and  _387
REMARK  161  A    between atoms: _386  and  _389
REMARK  162  A    between atoms: _389  and  _390
REMARK  163  A    between atoms: _390  and  _391
REMARK  164  A    between atoms: _391  and  _392
REMARK  165  A    between atoms: _392  and  _393
REMARK  166  A    between atoms: _397  and  _399
REMARK  167  A    between atoms: _399  and  _400
REMARK  168  A    between atoms: _399  and  _402
REMARK  169  A    between atoms: _405  and  _407
REMARK  170  A    between atoms: _407  and  _408
REMARK  171  A    between atoms: _407  and  _410
REMARK  172  A    between atoms: _412  and  _414
REMARK  173  A    between atoms: _414  and  _415
REMARK  174  A    between atoms: _417  and  _419
REMARK  175  A    between atoms: _419  and  _420
REMARK  176  A    between atoms: _419  and  _422
REMARK  177  A    between atoms: _422  and  _423
REMARK  178  A    between atoms: _429  and  _431
REMARK  179  A    between atoms: _431  and  _432
REMARK  180  A    between atoms: _431  and  _434
REMARK  181  A    between atoms: _434  and  _435
REMARK  182  A    between atoms: _438  and  _440
REMARK  183  A    between atoms: _440  and  _441
REMARK  184  A    between atoms: _440  and  _443
REMARK  185  A    between atoms: _443  and  _444
REMARK  186  A    between atoms: _447  and  _449
REMARK  187  A    between atoms: _449  and  _450
REMARK  188  A    between atoms: _449  and  _452
REMARK  189  A    between atoms: _452  and  _453
REMARK  190  A    between atoms: _453  and  _454
REMARK  191  A    between atoms: _457  and  _459
REMARK  192  A    between atoms: _459  and  _460
REMARK  193  A    between atoms: _459  and  _462
REMARK  194  A    between atoms: _462  and  _463
REMARK  195  A    between atoms: _466  and  _468
REMARK  196  A    between atoms: _468  and  _469
REMARK  197  A    between atoms: _468  and  _471
REMARK  198  A    between atoms: _473  and  _475
REMARK  199  A    between atoms: _475  and  _476
REMARK  200  A    between atoms: _478  and  _480
REMARK  201  A    between atoms: _480  and  _481
REMARK  202  A    between atoms: _480  and  _483
REMARK  203  A    between atoms: _483  and  _484
REMARK  204  A    between atoms: _487  and  _489
REMARK  205  A    between atoms: _489  and  _490
REMARK  206  A    between atoms: _492  and  _494
REMARK  207  A    between atoms: _494  and  _495
REMARK  208  A    between atoms: _494  and  _497
REMARK  209  A    between atoms: _497  and  _498
REMARK  210  A    between atoms: _501  and  _503
REMARK  211  A    between atoms: _503  and  _504
REMARK  212  A    between atoms: _503  and  _506
REMARK  213  A    between atoms: _506  and  _507
REMARK  214  A    between atoms: _512  and  _514
REMARK  215  A    between atoms: _514  and  _515
REMARK  216  A    between atoms: _514  and  _517
REMARK  217  A    between atoms: _517  and  _518
REMARK  218  A    between atoms: _521  and  _523
REMARK  219  A    between atoms: _523  and  _524
REMARK  220  A    between atoms: _523  and  _526
REMARK  221  A    between atoms: _526  and  _527
REMARK  222  A    between atoms: _527  and  _528
REMARK  223  A    between atoms: _533  and  _535
REMARK  224  A    between atoms: _535  and  _536
REMARK  225  A    between atoms: _535  and  _538
REMARK  226  A    between atoms: _538  and  _539
REMARK  227  A    between atoms: _545  and  _547
REMARK  228  A    between atoms: _547  and  _548
REMARK  229  A    between atoms: _547  and  _550
REMARK  230  A    between atoms: _550  and  _551
REMARK  231  A    between atoms: _554  and  _556
REMARK  232  A    between atoms: _556  and  _557
REMARK  233  A    between atoms: _556  and  _559
REMARK  234  A    between atoms: _559  and  _560
REMARK  235  A    between atoms: _562  and  _564
REMARK  236  A    between atoms: _564  and  _565
REMARK  237  A    between atoms: _564  and  _567
REMARK  238  A    between atoms: _567  and  _568
REMARK  239  A    between atoms: _571  and  _573
REMARK  240  A    between atoms: _573  and  _574
REMARK  241  A    between atoms: _573  and  _576
REMARK  242  A    between atoms: _576  and  _577
REMARK  243  A    between atoms: _577  and  _578
REMARK  244  A    between atoms: _578  and  _579
REMARK  245  A    between atoms: _588  and  _590
REMARK  246  A    between atoms: _590  and  _591
REMARK  247  A    between atoms: _590  and  _593
REMARK  248  A    between atoms: _593  and  _594
REMARK  249  A    between atoms: _594  and  _595
REMARK  250  A    between atoms: _595  and  _596
REMARK  251  A    between atoms: _605  and  _607
REMARK  252  A    between atoms: _607  and  _608
REMARK  253  A    between atoms: _611  and  _613
REMARK  254  A    between atoms: _613  and  _614
REMARK  255  A    between atoms: _613  and  _616
REMARK  256  A    between atoms: _616  and  _617
REMARK  257  A    between atoms: _620  and  _622
REMARK  258  A    between atoms: _622  and  _623
REMARK  259  A    between atoms: _622  and  _625
REMARK  260  A    between atoms: _625  and  _626
REMARK  261  A    between atoms: _628  and  _630
REMARK  262  A    between atoms: _630  and  _631
REMARK  263  A    between atoms: _630  and  _633
REMARK  264  A    between atoms: _633  and  _634
REMARK  265  A    between atoms: _637  and  _639
REMARK  266  A    between atoms: _639  and  _640
REMARK  267  A    between atoms: _639  and  _642
REMARK  268  A    between atoms: _642  and  _643
REMARK  269  A    between atoms: _646  and  _648
REMARK  270  A    between atoms: _648  and  _649
REMARK  271  A    between atoms: _648  and  _651
REMARK  272  A    between atoms: _651  and  _652
REMARK  273  A    between atoms: _655  and  _657
REMARK  274  A    between atoms: _657  and  _658
REMARK  275  A    between atoms: _657  and  _660
REMARK  276  A    between atoms: _660  and  _661
REMARK                            x       y       z     vdW  Elec       q    Type
REMARK                         _______ _______ _______ _____ _____    ______ ____
ROOT
ATOM      1  CA  ILE A   2      55.182  20.260   8.121  0.00  0.00    +0.148 C 
ENDROOT
BRANCH   1   3
ATOM      2  C   ASP A   1      55.804  18.013   8.803  0.00  0.00    +0.239 C 
ATOM      3  N   ILE A   2      54.965  19.023   8.784  0.00  0.00    -0.297 N 
ATOM      4  H   ILE A   2      54.068  18.908   9.297  0.00  0.00    +0.150 HD
ATOM      5  O   ASP A   1      56.951  18.030   8.453  0.00  0.00    -0.274 OA
BRANCH   2   6
ATOM      6  CA  ASP A   1      55.269  16.865   9.480  0.00  0.00    +0.156 C 
BRANCH   6   7
ATOM      7  N   ASP A   1      55.296  15.657   8.648  0.00  0.00    -0.238 NA
ATOM      8  H   ASP A   1      56.183  15.212   8.338  0.00  0.00    +0.142 HD
ENDBRANCH   6   7
BRANCH   6   9
ATOM      9  CB  ASP A   1      55.830  16.856  10.971  0.00  0.00    +0.140 C 
BRANCH   9  10
ATOM     10  CG  ASP A   1      57.119  16.238  11.055  0.00  0.00    +0.367 C 
ATOM     11  OD2 ASP A   1      57.923  16.553  11.973  0.00  0.00    -0.246 OA
ATOM     12  OD1 ASP A   1      57.279  15.405  10.104  0.00  0.00    -0.246 OA
ENDBRANCH   9  10
ENDBRANCH   6   9
ENDBRANCH   2   6
ENDBRANCH   1   3
BRANCH   1  13
ATOM     13  C   ILE A   2      55.418  21.401   9.088  0.00  0.00    +0.241 C 
ATOM     14  O   ILE A   2      54.732  21.538  10.093  0.00  0.00    -0.273 OA
ATOM     15  N   ASP A   3      56.401  22.217   8.734  0.00  0.00    -0.298 N 
ATOM     16  H   ASP A   3      57.046  21.873   7.995  0.00  0.00    +0.150 HD
BRANCH  15  17
ATOM     17  CA  ASP A   3      56.680  23.571   9.280  0.00  0.00    +0.148 C 
BRANCH  17  18
ATOM     18  C   ASP A   3      56.369  24.631   8.210  0.00  0.00    +0.227 C 
ATOM     19  O   ASP A   3      56.479  24.377   7.054  0.00  0.00    -0.286 OA
ENDBRANCH  17  18
BRANCH  17  20
ATOM     20  CB  ASP A   3      58.161  23.724   9.533  0.00  0.00    +0.142 C 
BRANCH  20  21
ATOM     21  CG  ASP A   3      58.647  22.967  10.737  0.00  0.00    +0.367 C 
ATOM     22  OD2 ASP A   3      57.763  22.422  11.496  0.00  0.00    -0.246 OA
ATOM     23  OD1 ASP A   3      59.930  22.930  10.933  0.00  0.00    -0.246 OA
ENDBRANCH  20  21
ENDBRANCH  17  20
ENDBRANCH  15  17
ENDBRANCH   1  13
BRANCH   1  24
ATOM     24  CB  ILE A   2      53.921  20.578   7.299  0.00  0.00    +0.027 C 
ATOM     25  CG2 ILE A   2      54.142  21.805   6.451  0.00  0.00    +0.002 C 
BRANCH  24  26
ATOM     26  CG1 ILE A   2      53.596  19.403   6.413  0.00  0.00    +0.002 C 
ATOM     27  CD1 ILE A   2      52.196  19.554   5.829  0.00  0.00    +0.000 C 
ENDBRANCH  24  26
ENDBRANCH   1  24
TORSDOF 12
REMARK  Name = ../refined-set-2016/4dq2/4dq2_pocket.pdb
REMARK  276 active torsions:
REMARK  status: ('A' for Active; 'I' for Inactive)
REMARK    1  A    between atoms: _1  and  _3
REMARK    2  A    between atoms: _3  and  _4
REMARK    3  A    between atoms: _3  and  _6
REMARK    4  A    between atoms: _6  and  _7
REMARK    5  A    between atoms: _10  and  _12
REMARK    6  A    between atoms: _12  and  _13
REMARK    7  A    between atoms: _12  and  _15
REMARK    8  A    between atoms: _15  and  _16
REMARK    9  A    between atoms: _19  and  _21
REMARK   10  A    between atoms: _21  and  _22
REMARK   11  A    between atoms: _21  and  _24
REMARK   12  A    between atoms: _24  and  _25
REMARK   13  A    between atoms: _27  and  _29
REMARK   14  A    between atoms: _29  and  _30
REMARK   15  A    between atoms: _29  and  _32
REMARK   16  A    between atoms: _32  and  _33
REMARK   17  A    between atoms: _36  and  _38
REMARK   18  A    between atoms: _38  and  _39
REMARK   19  A    between atoms: _38  and  _41
REMARK   20  A    between atoms: _41  and  _42
REMARK   21  A    between atoms: _42  and  _43
REMARK   22  A    between atoms: _48  and  _50
REMARK   23  A    between atoms: _50  and  _51
REMARK   24  A    between atoms: _50  and  _53
REMARK   25  A    between atoms: _53  and  _54
REMARK   26  A    between atoms: _57  and  _59
REMARK   27  A    between atoms: _59  and  _60
REMARK   28  A    between atoms: _63  and  _65
REMARK   29  A    between atoms: _65  and  _66
REMARK   30  A    between atoms: _69  and  _71
REMARK   31  A    between atoms: _71  and  _72
REMARK   32  A    between atoms: _71  and  _74
REMARK   33  A    between atoms: _74  and  _75
REMARK   34  A    between atoms: _75  and  _76
REMARK   35  A    between atoms: _76  and  _77
REMARK   36  A    between atoms: _77  and  _78
REMARK   37  A    between atoms: _82  and  _84
REMARK   38  A    between atoms: _84  and  _85
REMARK   39  A    between atoms: _84  and  _87
REMARK   40  A    between atoms: _87  and  _88
REMARK   41  A    between atoms: _91  and  _93
REMARK   42  A    between atoms: _93  and  _94
REMARK   43  A    between atoms: _93  and  _96
REMARK   44  A    between atoms: _96  and  _97
REMARK   45  A    between atoms: _99  and  _101
REMARK   46  A    between atoms: _101  and  _102
REMARK   47  A    between atoms: _101  and  _104
REMARK   48  A    between atoms: _104  and  _105
REMARK   49  A    between atoms: _105  and  _106
REMARK   50  A    between atoms: _111  and  _113
REMARK   51  A    between atoms: _113  and  _114
REMARK   52  A    between atoms: _113  and  _116
REMARK   53  A    between atoms: _116  and  _117
REMARK   54  A    between atoms: _120  and  _122
REMARK   55  A    between atoms: _122  and  _123
REMARK   56  A    between atoms: _122  and  _125
REMARK   57  A    between atoms: _125  and  _126
REMARK   58  A    between atoms: _126  and  _127
REMARK   59  A    between atoms: _127  and  _128
REMARK   60  A    between atoms: _128  and  _129
REMARK   61  A    between atoms: _133  and  _135
REMARK   62  A    between atoms: _135  and  _136
REMARK   63  A    between atoms: _138  and  _140
REMARK   64  A    between atoms: _140  and  _141
REMARK   65  A    between atoms: _140  and  _143
REMARK   66  A    between atoms: _143  and  _144
REMARK   67  A    between atoms: _144  and  _145
REMARK   68  A    between atoms: _145  and  _146
REMARK   69  A    between atoms: _155  and  _157
REMARK   70  A    between atoms: _157  and  _158
REMARK   71  A    between atoms: _160  and  _162
REMARK   72  A    between atoms: _162  and  _163
REMARK   73  A    between atoms: _162  and  _165
REMARK   74  A    between atoms: _165  and  _166
REMARK   75  A    between atoms: _166  and  _167
REMARK   76  A    between atoms: _167  and  _168
REMARK   77  A    between atoms: _177  and  _179
REMARK   78  A    between atoms: _179  and  _180
REMARK   79  A    between atoms: _179  and  _182
REMARK   80  A    between atoms: _182  and  _183
REMARK   81  A    between atoms: _189  and  _191
REMARK   82  A    between atoms: _191  and  _192
REMARK   83  A    between atoms: _191  and  _194
REMARK   84  A    between atoms: _194  and  _195
REMARK   85  A    between atoms: _200  and  _202
REMARK   86  A    between atoms: _202  and  _203
REMARK   87  A    between atoms: _202  and  _205
REMARK   88  A    between atoms: _205  and  _206
REMARK   89  A    between atoms: _206  and  _207
REMARK   90  A    between atoms: _207  and  _208
REMARK   91  A    between atoms: _217  and  _219
REMARK   92  A    between atoms: _219  and  _220
REMARK   93  A    between atoms: _219  and  _222
REMARK   94  A    between atoms: _222  and  _223
REMARK   95  A    between atoms: _228  and  _230
REMARK   96  A    between atoms: _230  and  _231
REMARK   97  A    between atoms: _230  and  _233
REMARK   98  A    between atoms: _233  and  _234
REMARK   99  A    between atoms: _244  and  _246
REMARK  100  A    between atoms: _246  and  _247
REMARK  101  A    between atoms: _246  and  _249
REMARK  102  A    between atoms: _249  and  _250
REMARK  103  A    between atoms: _252  and  _254
REMARK  104  A    between atoms: _254  and  _255
REMARK  105  A    between atoms: _254  and  _257
REMARK  106  A    between atoms: _257  and  _258
REMARK  107  A    between atoms: _260  and  _262
REMARK  108  A    between atoms: _262  and  _263
REMARK  109  A    between atoms: _262  and  _265
REMARK  110  A    between atoms: _265  and  _266
REMARK  111  A    between atoms: _268  and  _270
REMARK  112  A    between atoms: _270  and  _271
REMARK  113  A    between atoms: _273  and  _275
REMARK  114  A    between atoms: _275  and  _276
REMARK  115  A    between atoms: _275  and  _278
REMARK  116  A    between atoms: _278  and  _279
REMARK  117  A    between atoms: _282  and  _284
REMARK  118  A    between atoms: _284  and  _285
REMARK  119  A    between atoms: _284  and  _287
REMARK  120  A    between atoms: _287  and  _288
REMARK  121  A    between atoms: _298  and  _300
REMARK  122  A    between atoms: _300  and  _301
REMARK  123  A    between atoms: _300  and  _303
REMARK  124  A    between atoms: _303  and  _304
REMARK  125  A    between atoms: _304  and  _305
REMARK  126  A    between atoms: _307  and  _309
REMARK  127  A    between atoms: _309  and  _310
REMARK  128  A    between atoms: _309  and  _312
REMARK  129  A    between atoms: _312  and  _313
REMARK  130  A    between atoms: _315  and  _317
REMARK  131  A    between atoms: _317  and  _318
REMARK  132  A    between atoms: _317  and  _320
REMARK  133  A    between atoms: _323  and  _325
REMARK  134  A    between atoms: _325  and  _326
REMARK  135  A    between atoms: _325  and  _328
REMARK  136  A    between atoms: _328  and  _329
REMARK  137  A    between atoms: _329  and  _330
REMARK  138  A    between atoms: _330  and  _331
REMARK  139  A    between atoms: _331  and  _332
REMARK  140  A    between atoms: _336  and  _338
REMARK  141  A    between atoms: _338  and  _339
REMARK  142  A    between atoms: _338  and  _341
REMARK  143  A    between atoms: _341  and  _342
REMARK  144  A    between atoms: _347  and  _349
REMARK  145  A    between atoms: _349  and  _350
REMARK  146  A    between atoms: _349  and  _352
REMARK  147  A    between atoms: _352  and  _353
REMARK  148  A    between atoms: _356  and  _358
REMARK  149  A    between atoms: _358  and  _359
REMARK  150  A    between atoms: _358  and  _361
REMARK  151  A    between atoms: _361  and  _362
REMARK  152  A    between atoms: _365  and  _367
REMARK  153  A    between atoms: _367  and  _368
REMARK  154  A    between atoms: _367  and  _370
REMARK  155  A    between atoms: _370  and  _371
REMARK  156  A    between atoms: _376  and  _377
REMARK  157  A    between atoms: _379  and  _381
REMARK  158  A    between atoms: _381  and  _382
REMARK  159  A    between atoms: _384  and  _386
REMARK  160  A    between atoms: _386  and  _387
REMARK  161  A    between atoms: _386  and  _389
REMARK  162  A    between atoms: _389  and  _390
REMARK  163  A    between atoms: _390  and  _391
REMARK  164  A    between atoms: _391  and  _392
REMARK  165  A    between atoms: _392  and  _393
REMARK  166  A    between atoms: _397  and  _399
REMARK  167  A    between atoms: _399  and  _400
REMARK  168  A    between atoms: _399  and  _402
REMARK  169  A    between atoms: _405  and  _407
REMARK  170  A    between atoms: _407  and  _408
REMARK  171  A    between atoms: _407  and  _410
REMARK  172  A    between atoms: _412  and  _414
REMARK  173  A    between atoms: _414  and  _415
REMARK  174  A    between atoms: _417  and  _419
REMARK  175  A    between atoms: _419  and  _420
REMARK  176  A    between atoms: _419  and  _422
REMARK  177  A    between atoms: _422  and  _423
REMARK  178  A    between atoms: _429  and  _431
REMARK  179  A    between atoms: _431  and  _432
REMARK  180  A    between atoms: _431  and  _434
REMARK  181  A    between atoms: _434  and  _435
REMARK  182  A    between atoms: _438  and  _440
REMARK  183  A    between atoms: _440  and  _441
REMARK  184  A    between atoms: _440  and  _443
REMARK  185  A    between atoms: _443  and  _444
REMARK  186  A    between atoms: _447  and  _449
REMARK  187  A    between atoms: _449  and  _450
REMARK  188  A    between atoms: _449  and  _452
REMARK  189  A    between atoms: _452  and  _453
REMARK  190  A    between atoms: _453  and  _454
REMARK  191  A    between atoms: _457  and  _459
REMARK  192  A    between atoms: _459  and  _460
REMARK  193  A    between atoms: _459  and  _462
REMARK  194  A    between atoms: _462  and  _463
REMARK  195  A    between atoms: _466  and  _468
REMARK  196  A    between atoms: _468  and  _469
REMARK  197  A    between atoms: _468  and  _471
REMARK  198  A    between atoms: _473  and  _475
REMARK  199  A    between atoms: _475  and  _476
REMARK  200  A    between atoms: _478  and  _480
REMARK  201  A    between atoms: _480  and  _481
REMARK  202  A    between atoms: _480  and  _483
REMARK  203  A    between atoms: _483  and  _484
REMARK  204  A    between atoms: _487  and  _489
REMARK  205  A    between atoms: _489  and  _490
REMARK  206  A    between atoms: _492  and  _494
REMARK  207  A    between atoms: _494  and  _495
REMARK  208  A    between atoms: _494  and  _497
REMARK  209  A    between atoms: _497  and  _498
REMARK  210  A    between atoms: _501  and  _503
REMARK  211  A    between atoms: _503  and  _504
REMARK  212  A    between atoms: _503  and  _506
REMARK  213  A    between atoms: _506  and  _507
REMARK  214  A    between atoms: _512  and  _514
REMARK  215  A    between atoms: _514  and  _515
REMARK  216  A    between atoms: _514  and  _517
REMARK  217  A    between atoms: _517  and  _518
REMARK  218  A    between atoms: _521  and  _523
REMARK  219  A    between atoms: _523  and  _524
REMARK  220  A    between atoms: _523  and  _526
REMARK  221  A    between atoms: _526  and  _527
REMARK  222  A    between atoms: _527  and  _528
REMARK  223  A    between atoms: _533  and  _535
REMARK  224  A    between atoms: _535  and  _536
REMARK  225  A    between atoms: _535  and  _538
REMARK  226  A    between atoms: _538  and  _539
REMARK  227  A    between atoms: _545  and  _547
REMARK  228  A    between atoms: _547  and  _548
REMARK  229  A    between atoms: _547  and  _550
REMARK  230  A    between atoms: _550  and  _551
REMARK  231  A    between atoms: _554  and  _556
REMARK  232  A    between atoms: _556  and  _557
REMARK  233  A    between atoms: _556  and  _559
REMARK  234  A    between atoms: _559  and  _560
REMARK  235  A    between atoms: _562  and  _564
REMARK  236  A    between atoms: _564  and  _565
REMARK  237  A    between atoms: _564  and  _567
REMARK  238  A    between atoms: _567  and  _568
REMARK  239  A    between atoms: _571  and  _573
REMARK  240  A    between atoms: _573  and  _574
REMARK  241  A    between atoms: _573  and  _576
REMARK  242  A    between atoms: _576  and  _577
REMARK  243  A    between atoms: _577  and  _578
REMARK  244  A    between atoms: _578  and  _579
REMARK  245  A    between atoms: _588  and  _590
REMARK  246  A    between atoms: _590  and  _591
REMARK  247  A    between atoms: _590  and  _593
REMARK  248  A    between atoms: _593  and  _594
REMARK  249  A    between atoms: _594  and  _595
REMARK  250  A    between atoms: _595  and  _596
REMARK  251  A    between atoms: _605  and  _607
REMARK  252  A    between atoms: _607  and  _608
REMARK  253  A    between atoms: _611  and  _613
REMARK  254  A    between atoms: _613  and  _614
REMARK  255  A    between atoms: _613  and  _616
REMARK  256  A    between atoms: _616  and  _617
REMARK  257  A    between atoms: _620  and  _622
REMARK  258  A    between atoms: _622  and  _623
REMARK  259  A    between atoms: _622  and  _625
REMARK  260  A    between atoms: _625  and  _626
REMARK  261  A    between atoms: _628  and  _630
REMARK  262  A    between atoms: _630  and  _631
REMARK  263  A    between atoms: _630  and  _633
REMARK  264  A    between atoms: _633  and  _634
REMARK  265  A    between atoms: _637  and  _639
REMARK  266  A    between atoms: _639  and  _640
REMARK  267  A    between atoms: _639  and  _642
REMARK  268  A    between atoms: _642  and  _643
REMARK  269  A    between atoms: _646  and  _648
REMARK  270  A    between atoms: _648  and  _649
REMARK  271  A    between atoms: _648  and  _651
REMARK  272  A    between atoms: _651  and  _652
REMARK  273  A    between atoms: _655  and  _657
REMARK  274  A    between atoms: _657  and  _658
REMARK  275  A    between atoms: _657  and  _660
REMARK  276  A    between atoms: _660  and  _661
REMARK                            x       y       z     vdW  Elec       q    Type
REMARK                         _______ _______ _______ _____ _____    ______ ____
ROOT
ATOM      1  CA  ASP A   1      53.790   7.978  11.857  0.00  0.00    +0.144 C 
ENDROOT
BRANCH   1   2
ATOM      2  N   ASP A   1      52.388   7.791  11.865  0.00  0.00    -0.239 NA
ATOM      3  H   ASP A   1      51.894   7.851  12.778  0.00  0.00    +0.142 HD
ENDBRANCH   1   2
BRANCH   1   4
ATOM      4  C   ASP A   1      54.530   6.694  12.185  0.00  0.00    +0.225 C 
ATOM      5  O   ASP A   1      55.747   6.739  12.252  0.00  0.00    -0.287 OA
ENDBRANCH   1   4
BRANCH   1   6
ATOM      6  CB  ASP A   1      54.191   9.015  12.958  0.00  0.00    +0.139 C 
BRANCH   6   7
ATOM      7  CG  ASP A   1      53.539  10.437  12.756  0.00  0.00    +0.367 C 
ATOM      8  OD2 ASP A   1      53.264  11.163  13.778  0.00  0.00    -0.246 OA
ATOM      9  OD1 ASP A   1      53.329  10.869  11.568  0.00  0.00    -0.246 OA
ENDBRANCH   6   7
ENDBRANCH   1   6
TORSDOF 4
REMARK  Name = ../refined-set-2016/4dq2/4dq2_pocket.pdb
REMARK  276 active torsions:
REMARK  status: ('A' for Active; 'I' for Inactive)
REMARK    1  A    between atoms: _1  and  _3
REMARK    2  A    between atoms: _3  and  _4
REMARK    3  A    between atoms: _3  and  _6
REMARK    4  A    between atoms: _6  and  _7
REMARK    5  A    between atoms: _10  and  _12
REMARK    6  A    between atoms: _12  and  _13
REMARK    7  A    between atoms: _12  and  _15
REMARK    8  A    between atoms: _15  and  _16
REMARK    9  A    between atoms: _19  and  _21
REMARK   10  A    between atoms: _21  and  _22
REMARK   11  A    between atoms: _21  and  _24
REMARK   12  A    between atoms: _24  and  _25
REMARK   13  A    between atoms: _27  and  _29
REMARK   14  A    between atoms: _29  and  _30
REMARK   15  A    between atoms: _29  and  _32
REMARK   16  A    between atoms: _32  and  _33
REMARK   17  A    between atoms: _36  and  _38
REMARK   18  A    between atoms: _38  and  _39
REMARK   19  A    between atoms: _38  and  _41
REMARK   20  A    between atoms: _41  and  _42
REMARK   21  A    between atoms: _42  and  _43
REMARK   22  A    between atoms: _48  and  _50
REMARK   23  A    between atoms: _50  and  _51
REMARK   24  A    between atoms: _50  and  _53
REMARK   25  A    between atoms: _53  and  _54
REMARK   26  A    between atoms: _57  and  _59
REMARK   27  A    between atoms: _59  and  _60
REMARK   28  A    between atoms: _63  and  _65
REMARK   29  A    between atoms: _65  and  _66
REMARK   30  A    between atoms: _69  and  _71
REMARK   31  A    between atoms: _71  and  _72
REMARK   32  A    between atoms: _71  and  _74
REMARK   33  A    between atoms: _74  and  _75
REMARK   34  A    between atoms: _75  and  _76
REMARK   35  A    between atoms: _76  and  _77
REMARK   36  A    between atoms: _77  and  _78
REMARK   37  A    between atoms: _82  and  _84
REMARK   38  A    between atoms: _84  and  _85
REMARK   39  A    between atoms: _84  and  _87
REMARK   40  A    between atoms: _87  and  _88
REMARK   41  A    between atoms: _91  and  _93
REMARK   42  A    between atoms: _93  and  _94
REMARK   43  A    between atoms: _93  and  _96
REMARK   44  A    between atoms: _96  and  _97
REMARK   45  A    between atoms: _99  and  _101
REMARK   46  A    between atoms: _101  and  _102
REMARK   47  A    between atoms: _101  and  _104
REMARK   48  A    between atoms: _104  and  _105
REMARK   49  A    between atoms: _105  and  _106
REMARK   50  A    between atoms: _111  and  _113
REMARK   51  A    between atoms: _113  and  _114
REMARK   52  A    between atoms: _113  and  _116
REMARK   53  A    between atoms: _116  and  _117
REMARK   54  A    between atoms: _120  and  _122
REMARK   55  A    between atoms: _122  and  _123
REMARK   56  A    between atoms: _122  and  _125
REMARK   57  A    between atoms: _125  and  _126
REMARK   58  A    between atoms: _126  and  _127
REMARK   59  A    between atoms: _127  and  _128
REMARK   60  A    between atoms: _128  and  _129
REMARK   61  A    between atoms: _133  and  _135
REMARK   62  A    between atoms: _135  and  _136
REMARK   63  A    between atoms: _138  and  _140
REMARK   64  A    between atoms: _140  and  _141
REMARK   65  A    between atoms: _140  and  _143
REMARK   66  A    between atoms: _143  and  _144
REMARK   67  A    between atoms: _144  and  _145
REMARK   68  A    between atoms: _145  and  _146
REMARK   69  A    between atoms: _155  and  _157
REMARK   70  A    between atoms: _157  and  _158
REMARK   71  A    between atoms: _160  and  _162
REMARK   72  A    between atoms: _162  and  _163
REMARK   73  A    between atoms: _162  and  _165
REMARK   74  A    between atoms: _165  and  _166
REMARK   75  A    between atoms: _166  and  _167
REMARK   76  A    between atoms: _167  and  _168
REMARK   77  A    between atoms: _177  and  _179
REMARK   78  A    between atoms: _179  and  _180
REMARK   79  A    between atoms: _179  and  _182
REMARK   80  A    between atoms: _182  and  _183
REMARK   81  A    between atoms: _189  and  _191
REMARK   82  A    between atoms: _191  and  _192
REMARK   83  A    between atoms: _191  and  _194
REMARK   84  A    between atoms: _194  and  _195
REMARK   85  A    between atoms: _200  and  _202
REMARK   86  A    between atoms: _202  and  _203
REMARK   87  A    between atoms: _202  and  _205
REMARK   88  A    between atoms: _205  and  _206
REMARK   89  A    between atoms: _206  and  _207
REMARK   90  A    between atoms: _207  and  _208
REMARK   91  A    between atoms: _217  and  _219
REMARK   92  A    between atoms: _219  and  _220
REMARK   93  A    between atoms: _219  and  _222
REMARK   94  A    between atoms: _222  and  _223
REMARK   95  A    between atoms: _228  and  _230
REMARK   96  A    between atoms: _230  and  _231
REMARK   97  A    between atoms: _230  and  _233
REMARK   98  A    between atoms: _233  and  _234
REMARK   99  A    between atoms: _244  and  _246
REMARK  100  A    between atoms: _246  and  _247
REMARK  101  A    between atoms: _246  and  _249
REMARK  102  A    between atoms: _249  and  _250
REMARK  103  A    between atoms: _252  and  _254
REMARK  104  A    between atoms: _254  and  _255
REMARK  105  A    between atoms: _254  and  _257
REMARK  106  A    between atoms: _257  and  _258
REMARK  107  A    between atoms: _260  and  _262
REMARK  108  A    between atoms: _262  and  _263
REMARK  109  A    between atoms: _262  and  _265
REMARK  110  A    between atoms: _265  and  _266
REMARK  111  A    between atoms: _268  and  _270
REMARK  112  A    between atoms: _270  and  _271
REMARK  113  A    between atoms: _273  and  _275
REMARK  114  A    between atoms: _275  and  _276
REMARK  115  A    between atoms: _275  and  _278
REMARK  116  A    between atoms: _278  and  _279
REMARK  117  A    between atoms: _282  and  _284
REMARK  118  A    between atoms: _284  and  _285
REMARK  119  A    between atoms: _284  and  _287
REMARK  120  A    between atoms: _287  and  _288
REMARK  121  A    between atoms: _298  and  _300
REMARK  122  A    between atoms: _300  and  _301
REMARK  123  A    between atoms: _300  and  _303
REMARK  124  A    between atoms: _303  and  _304
REMARK  125  A    between atoms: _304  and  _305
REMARK  126  A    between atoms: _307  and  _309
REMARK  127  A    between atoms: _309  and  _310
REMARK  128  A    between atoms: _309  and  _312
REMARK  129  A    between atoms: _312  and  _313
REMARK  130  A    between atoms: _315  and  _317
REMARK  131  A    between atoms: _317  and  _318
REMARK  132  A    between atoms: _317  and  _320
REMARK  133  A    between atoms: _323  and  _325
REMARK  134  A    between atoms: _325  and  _326
REMARK  135  A    between atoms: _325  and  _328
REMARK  136  A    between atoms: _328  and  _329
REMARK  137  A    between atoms: _329  and  _330
REMARK  138  A    between atoms: _330  and  _331
REMARK  139  A    between atoms: _331  and  _332
REMARK  140  A    between atoms: _336  and  _338
REMARK  141  A    between atoms: _338  and  _339
REMARK  142  A    between atoms: _338  and  _341
REMARK  143  A    between atoms: _341  and  _342
REMARK  144  A    between atoms: _347  and  _349
REMARK  145  A    between atoms: _349  and  _350
REMARK  146  A    between atoms: _349  and  _352
REMARK  147  A    between atoms: _352  and  _353
REMARK  148  A    between atoms: _356  and  _358
REMARK  149  A    between atoms: _358  and  _359
REMARK  150  A    between atoms: _358  and  _361
REMARK  151  A    between atoms: _361  and  _362
REMARK  152  A    between atoms: _365  and  _367
REMARK  153  A    between atoms: _367  and  _368
REMARK  154  A    between atoms: _367  and  _370
REMARK  155  A    between atoms: _370  and  _371
REMARK  156  A    between atoms: _376  and  _377
REMARK  157  A    between atoms: _379  and  _381
REMARK  158  A    between atoms: _381  and  _382
REMARK  159  A    between atoms: _384  and  _386
REMARK  160  A    between atoms: _386  and  _387
REMARK  161  A    between atoms: _386  and  _389
REMARK  162  A    between atoms: _389  and  _390
REMARK  163  A    between atoms: _390  and  _391
REMARK  164  A    between atoms: _391  and  _392
REMARK  165  A    between atoms: _392  and  _393
REMARK  166  A    between atoms: _397  and  _399
REMARK  167  A    between atoms: _399  and  _400
REMARK  168  A    between atoms: _399  and  _402
REMARK  169  A    between atoms: _405  and  _407
REMARK  170  A    between atoms: _407  and  _408
REMARK  171  A    between atoms: _407  and  _410
REMARK  172  A    between atoms: _412  and  _414
REMARK  173  A    between atoms: _414  and  _415
REMARK  174  A    between atoms: _417  and  _419
REMARK  175  A    between atoms: _419  and  _420
REMARK  176  A    between atoms: _419  and  _422
REMARK  177  A    between atoms: _422  and  _423
REMARK  178  A    between atoms: _429  and  _431
REMARK  179  A    between atoms: _431  and  _432
REMARK  180  A    between atoms: _431  and  _434
REMARK  181  A    between atoms: _434  and  _435
REMARK  182  A    between atoms: _438  and  _440
REMARK  183  A    between atoms: _440  and  _441
REMARK  184  A    between atoms: _440  and  _443
REMARK  185  A    between atoms: _443  and  _444
REMARK  186  A    between atoms: _447  and  _449
REMARK  187  A    between atoms: _449  and  _450
REMARK  188  A    between atoms: _449  and  _452
REMARK  189  A    between atoms: _452  and  _453
REMARK  190  A    between atoms: _453  and  _454
REMARK  191  A    between atoms: _457  and  _459
REMARK  192  A    between atoms: _459  and  _460
REMARK  193  A    between atoms: _459  and  _462
REMARK  194  A    between atoms: _462  and  _463
REMARK  195  A    between atoms: _466  and  _468
REMARK  196  A    between atoms: _468  and  _469
REMARK  197  A    between atoms: _468  and  _471
REMARK  198  A    between atoms: _473  and  _475
REMARK  199  A    between atoms: _475  and  _476
REMARK  200  A    between atoms: _478  and  _480
REMARK  201  A    between atoms: _480  and  _481
REMARK  202  A    between atoms: _480  and  _483
REMARK  203  A    between atoms: _483  and  _484
REMARK  204  A    between atoms: _487  and  _489
REMARK  205  A    between atoms: _489  and  _490
REMARK  206  A    between atoms: _492  and  _494
REMARK  207  A    between atoms: _494  and  _495
REMARK  208  A    between atoms: _494  and  _497
REMARK  209  A    between atoms: _497  and  _498
REMARK  210  A    between atoms: _501  and  _503
REMARK  211  A    between atoms: _503  and  _504
REMARK  212  A    between atoms: _503  and  _506
REMARK  213  A    between atoms: _506  and  _507
REMARK  214  A    between atoms: _512  and  _514
REMARK  215  A    between atoms: _514  and  _515
REMARK  216  A    between atoms: _514  and  _517
REMARK  217  A    between atoms: _517  and  _518
REMARK  218  A    between atoms: _521  and  _523
REMARK  219  A    between atoms: _523  and  _524
REMARK  220  A    between atoms: _523  and  _526
REMARK  221  A    between atoms: _526  and  _527
REMARK  222  A    between atoms: _527  and  _528
REMARK  223  A    between atoms: _533  and  _535
REMARK  224  A    between atoms: _535  and  _536
REMARK  225  A    between atoms: _535  and  _538
REMARK  226  A    between atoms: _538  and  _539
REMARK  227  A    between atoms: _545  and  _547
REMARK  228  A    between atoms: _547  and  _548
REMARK  229  A    between atoms: _547  and  _550
REMARK  230  A    between atoms: _550  and  _551
REMARK  231  A    between atoms: _554  and  _556
REMARK  232  A    between atoms: _556  and  _557
REMARK  233  A    between atoms: _556  and  _559
REMARK  234  A    between atoms: _559  and  _560
REMARK  235  A    between atoms: _562  and  _564
REMARK  236  A    between atoms: _564  and  _565
REMARK  237  A    between atoms: _564  and  _567
REMARK  238  A    between atoms: _567  and  _568
REMARK  239  A    between atoms: _571  and  _573
REMARK  240  A    between atoms: _573  and  _574
REMARK  241  A    between atoms: _573  and  _576
REMARK  242  A    between atoms: _576  and  _577
REMARK  243  A    between atoms: _577  and  _578
REMARK  244  A    between atoms: _578  and  _579
REMARK  245  A    between atoms: _588  and  _590
REMARK  246  A    between atoms: _590  and  _591
REMARK  247  A    between atoms: _590  and  _593
REMARK  248  A    between atoms: _593  and  _594
REMARK  249  A    between atoms: _594  and  _595
REMARK  250  A    between atoms: _595  and  _596
REMARK  251  A    between atoms: _605  and  _607
REMARK  252  A    between atoms: _607  and  _608
REMARK  253  A    between atoms: _611  and  _613
REMARK  254  A    between atoms: _613  and  _614
REMARK  255  A    between atoms: _613  and  _616
REMARK  256  A    between atoms: _616  and  _617
REMARK  257  A    between atoms: _620  and  _622
REMARK  258  A    between atoms: _622  and  _623
REMARK  259  A    between atoms: _622  and  _625
REMARK  260  A    between atoms: _625  and  _626
REMARK  261  A    between atoms: _628  and  _630
REMARK  262  A    between atoms: _630  and  _631
REMARK  263  A    between atoms: _630  and  _633
REMARK  264  A    between atoms: _633  and  _634
REMARK  265  A    between atoms: _637  and  _639
REMARK  266  A    between atoms: _639  and  _640
REMARK  267  A    between atoms: _639  and  _642
REMARK  268  A    between atoms: _642  and  _643
REMARK  269  A    between atoms: _646  and  _648
REMARK  270  A    between atoms: _648  and  _649
REMARK  271  A    between atoms: _648  and  _651
REMARK  272  A    between atoms: _651  and  _652
REMARK  273  A    between atoms: _655  and  _657
REMARK  274  A    between atoms: _657  and  _658
REMARK  275  A    between atoms: _657  and  _660
REMARK  276  A    between atoms: _660  and  _661
REMARK                            x       y       z     vdW  Elec       q    Type
REMARK                         _______ _______ _______ _____ _____    ______ ____
ROOT
ATOM      1  O   HOH     1      60.391  18.541  22.204  0.00  0.00    +0.000 OA
ENDROOT
TORSDOF 0
REMARK  Name = ../refined-set-2016/4dq2/4dq2_pocket.pdb
REMARK  276 active torsions:
REMARK  status: ('A' for Active; 'I' for Inactive)
REMARK    1  A    between atoms: _1  and  _3
REMARK    2  A    between atoms: _3  and  _4
REMARK    3  A    between atoms: _3  and  _6
REMARK    4  A    between atoms: _6  and  _7
REMARK    5  A    between atoms: _10  and  _12
REMARK    6  A    between atoms: _12  and  _13
REMARK    7  A    between atoms: _12  and  _15
REMARK    8  A    between atoms: _15  and  _16
REMARK    9  A    between atoms: _19  and  _21
REMARK   10  A    between atoms: _21  and  _22
REMARK   11  A    between atoms: _21  and  _24
REMARK   12  A    between atoms: _24  and  _25
REMARK   13  A    between atoms: _27  and  _29
REMARK   14  A    between atoms: _29  and  _30
REMARK   15  A    between atoms: _29  and  _32
REMARK   16  A    between atoms: _32  and  _33
REMARK   17  A    between atoms: _36  and  _38
REMARK   18  A    between atoms: _38  and  _39
REMARK   19  A    between atoms: _38  and  _41
REMARK   20  A    between atoms: _41  and  _42
REMARK   21  A    between atoms: _42  and  _43
REMARK   22  A    between atoms: _48  and  _50
REMARK   23  A    between atoms: _50  and  _51
REMARK   24  A    between atoms: _50  and  _53
REMARK   25  A    between atoms: _53  and  _54
REMARK   26  A    between atoms: _57  and  _59
REMARK   27  A    between atoms: _59  and  _60
REMARK   28  A    between atoms: _63  and  _65
REMARK   29  A    between atoms: _65  and  _66
REMARK   30  A    between atoms: _69  and  _71
REMARK   31  A    between atoms: _71  and  _72
REMARK   32  A    between atoms: _71  and  _74
REMARK   33  A    between atoms: _74  and  _75
REMARK   34  A    between atoms: _75  and  _76
REMARK   35  A    between atoms: _76  and  _77
REMARK   36  A    between atoms: _77  and  _78
REMARK   37  A    between atoms: _82  and  _84
REMARK   38  A    between atoms: _84  and  _85
REMARK   39  A    between atoms: _84  and  _87
REMARK   40  A    between atoms: _87  and  _88
REMARK   41  A    between atoms: _91  and  _93
REMARK   42  A    between atoms: _93  and  _94
REMARK   43  A    between atoms: _93  and  _96
REMARK   44  A    between atoms: _96  and  _97
REMARK   45  A    between atoms: _99  and  _101
REMARK   46  A    between atoms: _101  and  _102
REMARK   47  A    between atoms: _101  and  _104
REMARK   48  A    between atoms: _104  and  _105
REMARK   49  A    between atoms: _105  and  _106
REMARK   50  A    between atoms: _111  and  _113
REMARK   51  A    between atoms: _113  and  _114
REMARK   52  A    between atoms: _113  and  _116
REMARK   53  A    between atoms: _116  and  _117
REMARK   54  A    between atoms: _120  and  _122
REMARK   55  A    between atoms: _122  and  _123
REMARK   56  A    between atoms: _122  and  _125
REMARK   57  A    between atoms: _125  and  _126
REMARK   58  A    between atoms: _126  and  _127
REMARK   59  A    between atoms: _127  and  _128
REMARK   60  A    between atoms: _128  and  _129
REMARK   61  A    between atoms: _133  and  _135
REMARK   62  A    between atoms: _135  and  _136
REMARK   63  A    between atoms: _138  and  _140
REMARK   64  A    between atoms: _140  and  _141
REMARK   65  A    between atoms: _140  and  _143
REMARK   66  A    between atoms: _143  and  _144
REMARK   67  A    between atoms: _144  and  _145
REMARK   68  A    between atoms: _145  and  _146
REMARK   69  A    between atoms: _155  and  _157
REMARK   70  A    between atoms: _157  and  _158
REMARK   71  A    between atoms: _160  and  _162
REMARK   72  A    between atoms: _162  and  _163
REMARK   73  A    between atoms: _162  and  _165
REMARK   74  A    between atoms: _165  and  _166
REMARK   75  A    between atoms: _166  and  _167
REMARK   76  A    between atoms: _167  and  _168
REMARK   77  A    between atoms: _177  and  _179
REMARK   78  A    between atoms: _179  and  _180
REMARK   79  A    between atoms: _179  and  _182
REMARK   80  A    between atoms: _182  and  _183
REMARK   81  A    between atoms: _189  and  _191
REMARK   82  A    between atoms: _191  and  _192
REMARK   83  A    between atoms: _191  and  _194
REMARK   84  A    between atoms: _194  and  _195
REMARK   85  A    between atoms: _200  and  _202
REMARK   86  A    between atoms: _202  and  _203
REMARK   87  A    between atoms: _202  and  _205
REMARK   88  A    between atoms: _205  and  _206
REMARK   89  A    between atoms: _206  and  _207
REMARK   90  A    between atoms: _207  and  _208
REMARK   91  A    between atoms: _217  and  _219
REMARK   92  A    between atoms: _219  and  _220
REMARK   93  A    between atoms: _219  and  _222
REMARK   94  A    between atoms: _222  and  _223
REMARK   95  A    between atoms: _228  and  _230
REMARK   96  A    between atoms: _230  and  _231
REMARK   97  A    between atoms: _230  and  _233
REMARK   98  A    between atoms: _233  and  _234
REMARK   99  A    between atoms: _244  and  _246
REMARK  100  A    between atoms: _246  and  _247
REMARK  101  A    between atoms: _246  and  _249
REMARK  102  A    between atoms: _249  and  _250
REMARK  103  A    between atoms: _252  and  _254
REMARK  104  A    between atoms: _254  and  _255
REMARK  105  A    between atoms: _254  and  _257
REMARK  106  A    between atoms: _257  and  _258
REMARK  107  A    between atoms: _260  and  _262
REMARK  108  A    between atoms: _262  and  _263
REMARK  109  A    between atoms: _262  and  _265
REMARK  110  A    between atoms: _265  and  _266
REMARK  111  A    between atoms: _268  and  _270
REMARK  112  A    between atoms: _270  and  _271
REMARK  113  A    between atoms: _273  and  _275
REMARK  114  A    between atoms: _275  and  _276
REMARK  115  A    between atoms: _275  and  _278
REMARK  116  A    between atoms: _278  and  _279
REMARK  117  A    between atoms: _282  and  _284
REMARK  118  A    between atoms: _284  and  _285
REMARK  119  A    between atoms: _284  and  _287
REMARK  120  A    between atoms: _287  and  _288
REMARK  121  A    between atoms: _298  and  _300
REMARK  122  A    between atoms: _300  and  _301
REMARK  123  A    between atoms: _300  and  _303
REMARK  124  A    between atoms: _303  and  _304
REMARK  125  A    between atoms: _304  and  _305
REMARK  126  A    between atoms: _307  and  _309
REMARK  127  A    between atoms: _309  and  _310
REMARK  128  A    between atoms: _309  and  _312
REMARK  129  A    between atoms: _312  and  _313
REMARK  130  A    between atoms: _315  and  _317
REMARK  131  A    between atoms: _317  and  _318
REMARK  132  A    between atoms: _317  and  _320
REMARK  133  A    between atoms: _323  and  _325
REMARK  134  A    between atoms: _325  and  _326
REMARK  135  A    between atoms: _325  and  _328
REMARK  136  A    between atoms: _328  and  _329
REMARK  137  A    between atoms: _329  and  _330
REMARK  138  A    between atoms: _330  and  _331
REMARK  139  A    between atoms: _331  and  _332
REMARK  140  A    between atoms: _336  and  _338
REMARK  141  A    between atoms: _338  and  _339
REMARK  142  A    between atoms: _338  and  _341
REMARK  143  A    between atoms: _341  and  _342
REMARK  144  A    between atoms: _347  and  _349
REMARK  145  A    between atoms: _349  and  _350
REMARK  146  A    between atoms: _349  and  _352
REMARK  147  A    between atoms: _352  and  _353
REMARK  148  A    between atoms: _356  and  _358
REMARK  149  A    between atoms: _358  and  _359
REMARK  150  A    between atoms: _358  and  _361
REMARK  151  A    between atoms: _361  and  _362
REMARK  152  A    between atoms: _365  and  _367
REMARK  153  A    between atoms: _367  and  _368
REMARK  154  A    between atoms: _367  and  _370
REMARK  155  A    between atoms: _370  and  _371
REMARK  156  A    between atoms: _376  and  _377
REMARK  157  A    between atoms: _379  and  _381
REMARK  158  A    between atoms: _381  and  _382
REMARK  159  A    between atoms: _384  and  _386
REMARK  160  A    between atoms: _386  and  _387
REMARK  161  A    between atoms: _386  and  _389
REMARK  162  A    between atoms: _389  and  _390
REMARK  163  A    between atoms: _390  and  _391
REMARK  164  A    between atoms: _391  and  _392
REMARK  165  A    between atoms: _392  and  _393
REMARK  166  A    between atoms: _397  and  _399
REMARK  167  A    between atoms: _399  and  _400
REMARK  168  A    between atoms: _399  and  _402
REMARK  169  A    between atoms: _405  and  _407
REMARK  170  A    between atoms: _407  and  _408
REMARK  171  A    between atoms: _407  and  _410
REMARK  172  A    between atoms: _412  and  _414
REMARK  173  A    between atoms: _414  and  _415
REMARK  174  A    between atoms: _417  and  _419
REMARK  175  A    between atoms: _419  and  _420
REMARK  176  A    between atoms: _419  and  _422
REMARK  177  A    between atoms: _422  and  _423
REMARK  178  A    between atoms: _429  and  _431
REMARK  179  A    between atoms: _431  and  _432
REMARK  180  A    between atoms: _431  and  _434
REMARK  181  A    between atoms: _434  and  _435
REMARK  182  A    between atoms: _438  and  _440
REMARK  183  A    between atoms: _440  and  _441
REMARK  184  A    between atoms: _440  and  _443
REMARK  185  A    between atoms: _443  and  _444
REMARK  186  A    between atoms: _447  and  _449
REMARK  187  A    between atoms: _449  and  _450
REMARK  188  A    between atoms: _449  and  _452
REMARK  189  A    between atoms: _452  and  _453
REMARK  190  A    between atoms: _453  and  _454
REMARK  191  A    between atoms: _457  and  _459
REMARK  192  A    between atoms: _459  and  _460
REMARK  193  A    between atoms: _459  and  _462
REMARK  194  A    between atoms: _462  and  _463
REMARK  195  A    between atoms: _466  and  _468
REMARK  196  A    between atoms: _468  and  _469
REMARK  197  A    between atoms: _468  and  _471
REMARK  198  A    between atoms: _473  and  _475
REMARK  199  A    between atoms: _475  and  _476
REMARK  200  A    between atoms: _478  and  _480
REMARK  201  A    between atoms: _480  and  _481
REMARK  202  A    between atoms: _480  and  _483
REMARK  203  A    between atoms: _483  and  _484
REMARK  204  A    between atoms: _487  and  _489
REMARK  205  A    between atoms: _489  and  _490
REMARK  206  A    between atoms: _492  and  _494
REMARK  207  A    between atoms: _494  and  _495
REMARK  208  A    between atoms: _494  and  _497
REMARK  209  A    between atoms: _497  and  _498
REMARK  210  A    between atoms: _501  and  _503
REMARK  211  A    between atoms: _503  and  _504
REMARK  212  A    between atoms: _503  and  _506
REMARK  213  A    between atoms: _506  and  _507
REMARK  214  A    between atoms: _512  and  _514
REMARK  215  A    between atoms: _514  and  _515
REMARK  216  A    between atoms: _514  and  _517
REMARK  217  A    between atoms: _517  and  _518
REMARK  218  A    between atoms: _521  and  _523
REMARK  219  A    between atoms: _523  and  _524
REMARK  220  A    between atoms: _523  and  _526
REMARK  221  A    between atoms: _526  and  _527
REMARK  222  A    between atoms: _527  and  _528
REMARK  223  A    between atoms: _533  and  _535
REMARK  224  A    between atoms: _535  and  _536
REMARK  225  A    between atoms: _535  and  _538
REMARK  226  A    between atoms: _538  and  _539
REMARK  227  A    between atoms: _545  and  _547
REMARK  228  A    between atoms: _547  and  _548
REMARK  229  A    between atoms: _547  and  _550
REMARK  230  A    between atoms: _550  and  _551
REMARK  231  A    between atoms: _554  and  _556
REMARK  232  A    between atoms: _556  and  _557
REMARK  233  A    between atoms: _556  and  _559
REMARK  234  A    between atoms: _559  and  _560
REMARK  235  A    between atoms: _562  and  _564
REMARK  236  A    between atoms: _564  and  _565
REMARK  237  A    between atoms: _564  and  _567
REMARK  238  A    between atoms: _567  and  _568
REMARK  239  A    between atoms: _571  and  _573
REMARK  240  A    between atoms: _573  and  _574
REMARK  241  A    between atoms: _573  and  _576
REMARK  242  A    between atoms: _576  and  _577
REMARK  243  A    between atoms: _577  and  _578
REMARK  244  A    between atoms: _578  and  _579
REMARK  245  A    between atoms: _588  and  _590
REMARK  246  A    between atoms: _590  and  _591
REMARK  247  A    between atoms: _590  and  _593
REMARK  248  A    between atoms: _593  and  _594
REMARK  249  A    between atoms: _594  and  _595
REMARK  250  A    between atoms: _595  and  _596
REMARK  251  A    between atoms: _605  and  _607
REMARK  252  A    between atoms: _607  and  _608
REMARK  253  A    between atoms: _611  and  _613
REMARK  254  A    between atoms: _613  and  _614
REMARK  255  A    between atoms: _613  and  _616
REMARK  256  A    between atoms: _616  and  _617
REMARK  257  A    between atoms: _620  and  _622
REMARK  258  A    between atoms: _622  and  _623
REMARK  259  A    between atoms: _622  and  _625
REMARK  260  A    between atoms: _625  and  _626
REMARK  261  A    between atoms: _628  and  _630
REMARK  262  A    between atoms: _630  and  _631
REMARK  263  A    between atoms: _630  and  _633
REMARK  264  A    between atoms: _633  and  _634
REMARK  265  A    between atoms: _637  and  _639
REMARK  266  A    between atoms: _639  and  _640
REMARK  267  A    between atoms: _639  and  _642
REMARK  268  A    between atoms: _642  and  _643
REMARK  269  A    between atoms: _646  and  _648
REMARK  270  A    between atoms: _648  and  _649
REMARK  271  A    between atoms: _648  and  _651
REMARK  272  A    between atoms: _651  and  _652
REMARK  273  A    between atoms: _655  and  _657
REMARK  274  A    between atoms: _657  and  _658
REMARK  275  A    between atoms: _657  and  _660
REMARK  276  A    between atoms: _660  and  _661
REMARK                            x       y       z     vdW  Elec       q    Type
REMARK                         _______ _______ _______ _____ _____    ______ ____
ROOT
ATOM      1  O   HOH     1      47.218  11.571  13.836  0.00  0.00    +0.000 OA
ENDROOT
TORSDOF 0
REMARK  Name = ../refined-set-2016/4dq2/4dq2_pocket.pdb
REMARK  276 active torsions:
REMARK  status: ('A' for Active; 'I' for Inactive)
REMARK    1  A    between atoms: _1  and  _3
REMARK    2  A    between atoms: _3  and  _4
REMARK    3  A    between atoms: _3  and  _6
REMARK    4  A    between atoms: _6  and  _7
REMARK    5  A    between atoms: _10  and  _12
REMARK    6  A    between atoms: _12  and  _13
REMARK    7  A    between atoms: _12  and  _15
REMARK    8  A    between atoms: _15  and  _16
REMARK    9  A    between atoms: _19  and  _21
REMARK   10  A    between atoms: _21  and  _22
REMARK   11  A    between atoms: _21  and  _24
REMARK   12  A    between atoms: _24  and  _25
REMARK   13  A    between atoms: _27  and  _29
REMARK   14  A    between atoms: _29  and  _30
REMARK   15  A    between atoms: _29  and  _32
REMARK   16  A    between atoms: _32  and  _33
REMARK   17  A    between atoms: _36  and  _38
REMARK   18  A    between atoms: _38  and  _39
REMARK   19  A    between atoms: _38  and  _41
REMARK   20  A    between atoms: _41  and  _42
REMARK   21  A    between atoms: _42  and  _43
REMARK   22  A    between atoms: _48  and  _50
REMARK   23  A    between atoms: _50  and  _51
REMARK   24  A    between atoms: _50  and  _53
REMARK   25  A    between atoms: _53  and  _54
REMARK   26  A    between atoms: _57  and  _59
REMARK   27  A    between atoms: _59  and  _60
REMARK   28  A    between atoms: _63  and  _65
REMARK   29  A    between atoms: _65  and  _66
REMARK   30  A    between atoms: _69  and  _71
REMARK   31  A    between atoms: _71  and  _72
REMARK   32  A    between atoms: _71  and  _74
REMARK   33  A    between atoms: _74  and  _75
REMARK   34  A    between atoms: _75  and  _76
REMARK   35  A    between atoms: _76  and  _77
REMARK   36  A    between atoms: _77  and  _78
REMARK   37  A    between atoms: _82  and  _84
REMARK   38  A    between atoms: _84  and  _85
REMARK   39  A    between atoms: _84  and  _87
REMARK   40  A    between atoms: _87  and  _88
REMARK   41  A    between atoms: _91  and  _93
REMARK   42  A    between atoms: _93  and  _94
REMARK   43  A    between atoms: _93  and  _96
REMARK   44  A    between atoms: _96  and  _97
REMARK   45  A    between atoms: _99  and  _101
REMARK   46  A    between atoms: _101  and  _102
REMARK   47  A    between atoms: _101  and  _104
REMARK   48  A    between atoms: _104  and  _105
REMARK   49  A    between atoms: _105  and  _106
REMARK   50  A    between atoms: _111  and  _113
REMARK   51  A    between atoms: _113  and  _114
REMARK   52  A    between atoms: _113  and  _116
REMARK   53  A    between atoms: _116  and  _117
REMARK   54  A    between atoms: _120  and  _122
REMARK   55  A    between atoms: _122  and  _123
REMARK   56  A    between atoms: _122  and  _125
REMARK   57  A    between atoms: _125  and  _126
REMARK   58  A    between atoms: _126  and  _127
REMARK   59  A    between atoms: _127  and  _128
REMARK   60  A    between atoms: _128  and  _129
REMARK   61  A    between atoms: _133  and  _135
REMARK   62  A    between atoms: _135  and  _136
REMARK   63  A    between atoms: _138  and  _140
REMARK   64  A    between atoms: _140  and  _141
REMARK   65  A    between atoms: _140  and  _143
REMARK   66  A    between atoms: _143  and  _144
REMARK   67  A    between atoms: _144  and  _145
REMARK   68  A    between atoms: _145  and  _146
REMARK   69  A    between atoms: _155  and  _157
REMARK   70  A    between atoms: _157  and  _158
REMARK   71  A    between atoms: _160  and  _162
REMARK   72  A    between atoms: _162  and  _163
REMARK   73  A    between atoms: _162  and  _165
REMARK   74  A    between atoms: _165  and  _166
REMARK   75  A    between atoms: _166  and  _167
REMARK   76  A    between atoms: _167  and  _168
REMARK   77  A    between atoms: _177  and  _179
REMARK   78  A    between atoms: _179  and  _180
REMARK   79  A    between atoms: _179  and  _182
REMARK   80  A    between atoms: _182  and  _183
REMARK   81  A    between atoms: _189  and  _191
REMARK   82  A    between atoms: _191  and  _192
REMARK   83  A    between atoms: _191  and  _194
REMARK   84  A    between atoms: _194  and  _195
REMARK   85  A    between atoms: _200  and  _202
REMARK   86  A    between atoms: _202  and  _203
REMARK   87  A    between atoms: _202  and  _205
REMARK   88  A    between atoms: _205  and  _206
REMARK   89  A    between atoms: _206  and  _207
REMARK   90  A    between atoms: _207  and  _208
REMARK   91  A    between atoms: _217  and  _219
REMARK   92  A    between atoms: _219  and  _220
REMARK   93  A    between atoms: _219  and  _222
REMARK   94  A    between atoms: _222  and  _223
REMARK   95  A    between atoms: _228  and  _230
REMARK   96  A    between atoms: _230  and  _231
REMARK   97  A    between atoms: _230  and  _233
REMARK   98  A    between atoms: _233  and  _234
REMARK   99  A    between atoms: _244  and  _246
REMARK  100  A    between atoms: _246  and  _247
REMARK  101  A    between atoms: _246  and  _249
REMARK  102  A    between atoms: _249  and  _250
REMARK  103  A    between atoms: _252  and  _254
REMARK  104  A    between atoms: _254  and  _255
REMARK  105  A    between atoms: _254  and  _257
REMARK  106  A    between atoms: _257  and  _258
REMARK  107  A    between atoms: _260  and  _262
REMARK  108  A    between atoms: _262  and  _263
REMARK  109  A    between atoms: _262  and  _265
REMARK  110  A    between atoms: _265  and  _266
REMARK  111  A    between atoms: _268  and  _270
REMARK  112  A    between atoms: _270  and  _271
REMARK  113  A    between atoms: _273  and  _275
REMARK  114  A    between atoms: _275  and  _276
REMARK  115  A    between atoms: _275  and  _278
REMARK  116  A    between atoms: _278  and  _279
REMARK  117  A    between atoms: _282  and  _284
REMARK  118  A    between atoms: _284  and  _285
REMARK  119  A    between atoms: _284  and  _287
REMARK  120  A    between atoms: _287  and  _288
REMARK  121  A    between atoms: _298  and  _300
REMARK  122  A    between atoms: _300  and  _301
REMARK  123  A    between atoms: _300  and  _303
REMARK  124  A    between atoms: _303  and  _304
REMARK  125  A    between atoms: _304  and  _305
REMARK  126  A    between atoms: _307  and  _309
REMARK  127  A    between atoms: _309  and  _310
REMARK  128  A    between atoms: _309  and  _312
REMARK  129  A    between atoms: _312  and  _313
REMARK  130  A    between atoms: _315  and  _317
REMARK  131  A    between atoms: _317  and  _318
REMARK  132  A    between atoms: _317  and  _320
REMARK  133  A    between atoms: _323  and  _325
REMARK  134  A    between atoms: _325  and  _326
REMARK  135  A    between atoms: _325  and  _328
REMARK  136  A    between atoms: _328  and  _329
REMARK  137  A    between atoms: _329  and  _330
REMARK  138  A    between atoms: _330  and  _331
REMARK  139  A    between atoms: _331  and  _332
REMARK  140  A    between atoms: _336  and  _338
REMARK  141  A    between atoms: _338  and  _339
REMARK  142  A    between atoms: _338  and  _341
REMARK  143  A    between atoms: _341  and  _342
REMARK  144  A    between atoms: _347  and  _349
REMARK  145  A    between atoms: _349  and  _350
REMARK  146  A    between atoms: _349  and  _352
REMARK  147  A    between atoms: _352  and  _353
REMARK  148  A    between atoms: _356  and  _358
REMARK  149  A    between atoms: _358  and  _359
REMARK  150  A    between atoms: _358  and  _361
REMARK  151  A    between atoms: _361  and  _362
REMARK  152  A    between atoms: _365  and  _367
REMARK  153  A    between atoms: _367  and  _368
REMARK  154  A    between atoms: _367  and  _370
REMARK  155  A    between atoms: _370  and  _371
REMARK  156  A    between atoms: _376  and  _377
REMARK  157  A    between atoms: _379  and  _381
REMARK  158  A    between atoms: _381  and  _382
REMARK  159  A    between atoms: _384  and  _386
REMARK  160  A    between atoms: _386  and  _387
REMARK  161  A    between atoms: _386  and  _389
REMARK  162  A    between atoms: _389  and  _390
REMARK  163  A    between atoms: _390  and  _391
REMARK  164  A    between atoms: _391  and  _392
REMARK  165  A    between atoms: _392  and  _393
REMARK  166  A    between atoms: _397  and  _399
REMARK  167  A    between atoms: _399  and  _400
REMARK  168  A    between atoms: _399  and  _402
REMARK  169  A    between atoms: _405  and  _407
REMARK  170  A    between atoms: _407  and  _408
REMARK  171  A    between atoms: _407  and  _410
REMARK  172  A    between atoms: _412  and  _414
REMARK  173  A    between atoms: _414  and  _415
REMARK  174  A    between atoms: _417  and  _419
REMARK  175  A    between atoms: _419  and  _420
REMARK  176  A    between atoms: _419  and  _422
REMARK  177  A    between atoms: _422  and  _423
REMARK  178  A    between atoms: _429  and  _431
REMARK  179  A    between atoms: _431  and  _432
REMARK  180  A    between atoms: _431  and  _434
REMARK  181  A    between atoms: _434  and  _435
REMARK  182  A    between atoms: _438  and  _440
REMARK  183  A    between atoms: _440  and  _441
REMARK  184  A    between atoms: _440  and  _443
REMARK  185  A    between atoms: _443  and  _444
REMARK  186  A    between atoms: _447  and  _449
REMARK  187  A    between atoms: _449  and  _450
REMARK  188  A    between atoms: _449  and  _452
REMARK  189  A    between atoms: _452  and  _453
REMARK  190  A    between atoms: _453  and  _454
REMARK  191  A    between atoms: _457  and  _459
REMARK  192  A    between atoms: _459  and  _460
REMARK  193  A    between atoms: _459  and  _462
REMARK  194  A    between atoms: _462  and  _463
REMARK  195  A    between atoms: _466  and  _468
REMARK  196  A    between atoms: _468  and  _469
REMARK  197  A    between atoms: _468  and  _471
REMARK  198  A    between atoms: _473  and  _475
REMARK  199  A    between atoms: _475  and  _476
REMARK  200  A    between atoms: _478  and  _480
REMARK  201  A    between atoms: _480  and  _481
REMARK  202  A    between atoms: _480  and  _483
REMARK  203  A    between atoms: _483  and  _484
REMARK  204  A    between atoms: _487  and  _489
REMARK  205  A    between atoms: _489  and  _490
REMARK  206  A    between atoms: _492  and  _494
REMARK  207  A    between atoms: _494  and  _495
REMARK  208  A    between atoms: _494  and  _497
REMARK  209  A    between atoms: _497  and  _498
REMARK  210  A    between atoms: _501  and  _503
REMARK  211  A    between atoms: _503  and  _504
REMARK  212  A    between atoms: _503  and  _506
REMARK  213  A    between atoms: _506  and  _507
REMARK  214  A    between atoms: _512  and  _514
REMARK  215  A    between atoms: _514  and  _515
REMARK  216  A    between atoms: _514  and  _517
REMARK  217  A    between atoms: _517  and  _518
REMARK  218  A    between atoms: _521  and  _523
REMARK  219  A    between atoms: _523  and  _524
REMARK  220  A    between atoms: _523  and  _526
REMARK  221  A    between atoms: _526  and  _527
REMARK  222  A    between atoms: _527  and  _528
REMARK  223  A    between atoms: _533  and  _535
REMARK  224  A    between atoms: _535  and  _536
REMARK  225  A    between atoms: _535  and  _538
REMARK  226  A    between atoms: _538  and  _539
REMARK  227  A    between atoms: _545  and  _547
REMARK  228  A    between atoms: _547  and  _548
REMARK  229  A    between atoms: _547  and  _550
REMARK  230  A    between atoms: _550  and  _551
REMARK  231  A    between atoms: _554  and  _556
REMARK  232  A    between atoms: _556  and  _557
REMARK  233  A    between atoms: _556  and  _559
REMARK  234  A    between atoms: _559  and  _560
REMARK  235  A    between atoms: _562  and  _564
REMARK  236  A    between atoms: _564  and  _565
REMARK  237  A    between atoms: _564  and  _567
REMARK  238  A    between atoms: _567  and  _568
REMARK  239  A    between atoms: _571  and  _573
REMARK  240  A    between atoms: _573  and  _574
REMARK  241  A    between atoms: _573  and  _576
REMARK  242  A    between atoms: _576  and  _577
REMARK  243  A    between atoms: _577  and  _578
REMARK  244  A    between atoms: _578  and  _579
REMARK  245  A    between atoms: _588  and  _590
REMARK  246  A    between atoms: _590  and  _591
REMARK  247  A    between atoms: _590  and  _593
REMARK  248  A    between atoms: _593  and  _594
REMARK  249  A    between atoms: _594  and  _595
REMARK  250  A    between atoms: _595  and  _596
REMARK  251  A    between atoms: _605  and  _607
REMARK  252  A    between atoms: _607  and  _608
REMARK  253  A    between atoms: _611  and  _613
REMARK  254  A    between atoms: _613  and  _614
REMARK  255  A    between atoms: _613  and  _616
REMARK  256  A    between atoms: _616  and  _617
REMARK  257  A    between atoms: _620  and  _622
REMARK  258  A    between atoms: _622  and  _623
REMARK  259  A    between atoms: _622  and  _625
REMARK  260  A    between atoms: _625  and  _626
REMARK  261  A    between atoms: _628  and  _630
REMARK  262  A    between atoms: _630  and  _631
REMARK  263  A    between atoms: _630  and  _633
REMARK  264  A    between atoms: _633  and  _634
REMARK  265  A    between atoms: _637  and  _639
REMARK  266  A    between atoms: _639  and  _640
REMARK  267  A    between atoms: _639  and  _642
REMARK  268  A    between atoms: _642  and  _643
REMARK  269  A    between atoms: _646  and  _648
REMARK  270  A    between atoms: _648  and  _649
REMARK  271  A    between atoms: _648  and  _651
REMARK  272  A    between atoms: _651  and  _652
REMARK  273  A    between atoms: _655  and  _657
REMARK  274  A    between atoms: _657  and  _658
REMARK  275  A    between atoms: _657  and  _660
REMARK  276  A    between atoms: _660  and  _661
REMARK                            x       y       z     vdW  Elec       q    Type
REMARK                         _______ _______ _______ _____ _____    ______ ____
ROOT
ATOM      1  O   HOH     1      53.712  21.314  30.520  0.00  0.00    +0.000 OA
ENDROOT
TORSDOF 0
REMARK  Name = ../refined-set-2016/4dq2/4dq2_pocket.pdb
REMARK  276 active torsions:
REMARK  status: ('A' for Active; 'I' for Inactive)
REMARK    1  A    between atoms: _1  and  _3
REMARK    2  A    between atoms: _3  and  _4
REMARK    3  A    between atoms: _3  and  _6
REMARK    4  A    between atoms: _6  and  _7
REMARK    5  A    between atoms: _10  and  _12
REMARK    6  A    between atoms: _12  and  _13
REMARK    7  A    between atoms: _12  and  _15
REMARK    8  A    between atoms: _15  and  _16
REMARK    9  A    between atoms: _19  and  _21
REMARK   10  A    between atoms: _21  and  _22
REMARK   11  A    between atoms: _21  and  _24
REMARK   12  A    between atoms: _24  and  _25
REMARK   13  A    between atoms: _27  and  _29
REMARK   14  A    between atoms: _29  and  _30
REMARK   15  A    between atoms: _29  and  _32
REMARK   16  A    between atoms: _32  and  _33
REMARK   17  A    between atoms: _36  and  _38
REMARK   18  A    between atoms: _38  and  _39
REMARK   19  A    between atoms: _38  and  _41
REMARK   20  A    between atoms: _41  and  _42
REMARK   21  A    between atoms: _42  and  _43
REMARK   22  A    between atoms: _48  and  _50
REMARK   23  A    between atoms: _50  and  _51
REMARK   24  A    between atoms: _50  and  _53
REMARK   25  A    between atoms: _53  and  _54
REMARK   26  A    between atoms: _57  and  _59
REMARK   27  A    between atoms: _59  and  _60
REMARK   28  A    between atoms: _63  and  _65
REMARK   29  A    between atoms: _65  and  _66
REMARK   30  A    between atoms: _69  and  _71
REMARK   31  A    between atoms: _71  and  _72
REMARK   32  A    between atoms: _71  and  _74
REMARK   33  A    between atoms: _74  and  _75
REMARK   34  A    between atoms: _75  and  _76
REMARK   35  A    between atoms: _76  and  _77
REMARK   36  A    between atoms: _77  and  _78
REMARK   37  A    between atoms: _82  and  _84
REMARK   38  A    between atoms: _84  and  _85
REMARK   39  A    between atoms: _84  and  _87
REMARK   40  A    between atoms: _87  and  _88
REMARK   41  A    between atoms: _91  and  _93
REMARK   42  A    between atoms: _93  and  _94
REMARK   43  A    between atoms: _93  and  _96
REMARK   44  A    between atoms: _96  and  _97
REMARK   45  A    between atoms: _99  and  _101
REMARK   46  A    between atoms: _101  and  _102
REMARK   47  A    between atoms: _101  and  _104
REMARK   48  A    between atoms: _104  and  _105
REMARK   49  A    between atoms: _105  and  _106
REMARK   50  A    between atoms: _111  and  _113
REMARK   51  A    between atoms: _113  and  _114
REMARK   52  A    between atoms: _113  and  _116
REMARK   53  A    between atoms: _116  and  _117
REMARK   54  A    between atoms: _120  and  _122
REMARK   55  A    between atoms: _122  and  _123
REMARK   56  A    between atoms: _122  and  _125
REMARK   57  A    between atoms: _125  and  _126
REMARK   58  A    between atoms: _126  and  _127
REMARK   59  A    between atoms: _127  and  _128
REMARK   60  A    between atoms: _128  and  _129
REMARK   61  A    between atoms: _133  and  _135
REMARK   62  A    between atoms: _135  and  _136
REMARK   63  A    between atoms: _138  and  _140
REMARK   64  A    between atoms: _140  and  _141
REMARK   65  A    between atoms: _140  and  _143
REMARK   66  A    between atoms: _143  and  _144
REMARK   67  A    between atoms: _144  and  _145
REMARK   68  A    between atoms: _145  and  _146
REMARK   69  A    between atoms: _155  and  _157
REMARK   70  A    between atoms: _157  and  _158
REMARK   71  A    between atoms: _160  and  _162
REMARK   72  A    between atoms: _162  and  _163
REMARK   73  A    between atoms: _162  and  _165
REMARK   74  A    between atoms: _165  and  _166
REMARK   75  A    between atoms: _166  and  _167
REMARK   76  A    between atoms: _167  and  _168
REMARK   77  A    between atoms: _177  and  _179
REMARK   78  A    between atoms: _179  and  _180
REMARK   79  A    between atoms: _179  and  _182
REMARK   80  A    between atoms: _182  and  _183
REMARK   81  A    between atoms: _189  and  _191
REMARK   82  A    between atoms: _191  and  _192
REMARK   83  A    between atoms: _191  and  _194
REMARK   84  A    between atoms: _194  and  _195
REMARK   85  A    between atoms: _200  and  _202
REMARK   86  A    between atoms: _202  and  _203
REMARK   87  A    between atoms: _202  and  _205
REMARK   88  A    between atoms: _205  and  _206
REMARK   89  A    between atoms: _206  and  _207
REMARK   90  A    between atoms: _207  and  _208
REMARK   91  A    between atoms: _217  and  _219
REMARK   92  A    between atoms: _219  and  _220
REMARK   93  A    between atoms: _219  and  _222
REMARK   94  A    between atoms: _222  and  _223
REMARK   95  A    between atoms: _228  and  _230
REMARK   96  A    between atoms: _230  and  _231
REMARK   97  A    between atoms: _230  and  _233
REMARK   98  A    between atoms: _233  and  _234
REMARK   99  A    between atoms: _244  and  _246
REMARK  100  A    between atoms: _246  and  _247
REMARK  101  A    between atoms: _246  and  _249
REMARK  102  A    between atoms: _249  and  _250
REMARK  103  A    between atoms: _252  and  _254
REMARK  104  A    between atoms: _254  and  _255
REMARK  105  A    between atoms: _254  and  _257
REMARK  106  A    between atoms: _257  and  _258
REMARK  107  A    between atoms: _260  and  _262
REMARK  108  A    between atoms: _262  and  _263
REMARK  109  A    between atoms: _262  and  _265
REMARK  110  A    between atoms: _265  and  _266
REMARK  111  A    between atoms: _268  and  _270
REMARK  112  A    between atoms: _270  and  _271
REMARK  113  A    between atoms: _273  and  _275
REMARK  114  A    between atoms: _275  and  _276
REMARK  115  A    between atoms: _275  and  _278
REMARK  116  A    between atoms: _278  and  _279
REMARK  117  A    between atoms: _282  and  _284
REMARK  118  A    between atoms: _284  and  _285
REMARK  119  A    between atoms: _284  and  _287
REMARK  120  A    between atoms: _287  and  _288
REMARK  121  A    between atoms: _298  and  _300
REMARK  122  A    between atoms: _300  and  _301
REMARK  123  A    between atoms: _300  and  _303
REMARK  124  A    between atoms: _303  and  _304
REMARK  125  A    between atoms: _304  and  _305
REMARK  126  A    between atoms: _307  and  _309
REMARK  127  A    between atoms: _309  and  _310
REMARK  128  A    between atoms: _309  and  _312
REMARK  129  A    between atoms: _312  and  _313
REMARK  130  A    between atoms: _315  and  _317
REMARK  131  A    between atoms: _317  and  _318
REMARK  132  A    between atoms: _317  and  _320
REMARK  133  A    between atoms: _323  and  _325
REMARK  134  A    between atoms: _325  and  _326
REMARK  135  A    between atoms: _325  and  _328
REMARK  136  A    between atoms: _328  and  _329
REMARK  137  A    between atoms: _329  and  _330
REMARK  138  A    between atoms: _330  and  _331
REMARK  139  A    between atoms: _331  and  _332
REMARK  140  A    between atoms: _336  and  _338
REMARK  141  A    between atoms: _338  and  _339
REMARK  142  A    between atoms: _338  and  _341
REMARK  143  A    between atoms: _341  and  _342
REMARK  144  A    between atoms: _347  and  _349
REMARK  145  A    between atoms: _349  and  _350
REMARK  146  A    between atoms: _349  and  _352
REMARK  147  A    between atoms: _352  and  _353
REMARK  148  A    between atoms: _356  and  _358
REMARK  149  A    between atoms: _358  and  _359
REMARK  150  A    between atoms: _358  and  _361
REMARK  151  A    between atoms: _361  and  _362
REMARK  152  A    between atoms: _365  and  _367
REMARK  153  A    between atoms: _367  and  _368
REMARK  154  A    between atoms: _367  and  _370
REMARK  155  A    between atoms: _370  and  _371
REMARK  156  A    between atoms: _376  and  _377
REMARK  157  A    between atoms: _379  and  _381
REMARK  158  A    between atoms: _381  and  _382
REMARK  159  A    between atoms: _384  and  _386
REMARK  160  A    between atoms: _386  and  _387
REMARK  161  A    between atoms: _386  and  _389
REMARK  162  A    between atoms: _389  and  _390
REMARK  163  A    between atoms: _390  and  _391
REMARK  164  A    between atoms: _391  and  _392
REMARK  165  A    between atoms: _392  and  _393
REMARK  166  A    between atoms: _397  and  _399
REMARK  167  A    between atoms: _399  and  _400
REMARK  168  A    between atoms: _399  and  _402
REMARK  169  A    between atoms: _405  and  _407
REMARK  170  A    between atoms: _407  and  _408
REMARK  171  A    between atoms: _407  and  _410
REMARK  172  A    between atoms: _412  and  _414
REMARK  173  A    between atoms: _414  and  _415
REMARK  174  A    between atoms: _417  and  _419
REMARK  175  A    between atoms: _419  and  _420
REMARK  176  A    between atoms: _419  and  _422
REMARK  177  A    between atoms: _422  and  _423
REMARK  178  A    between atoms: _429  and  _431
REMARK  179  A    between atoms: _431  and  _432
REMARK  180  A    between atoms: _431  and  _434
REMARK  181  A    between atoms: _434  and  _435
REMARK  182  A    between atoms: _438  and  _440
REMARK  183  A    between atoms: _440  and  _441
REMARK  184  A    between atoms: _440  and  _443
REMARK  185  A    between atoms: _443  and  _444
REMARK  186  A    between atoms: _447  and  _449
REMARK  187  A    between atoms: _449  and  _450
REMARK  188  A    between atoms: _449  and  _452
REMARK  189  A    between atoms: _452  and  _453
REMARK  190  A    between atoms: _453  and  _454
REMARK  191  A    between atoms: _457  and  _459
REMARK  192  A    between atoms: _459  and  _460
REMARK  193  A    between atoms: _459  and  _462
REMARK  194  A    between atoms: _462  and  _463
REMARK  195  A    between atoms: _466  and  _468
REMARK  196  A    between atoms: _468  and  _469
REMARK  197  A    between atoms: _468  and  _471
REMARK  198  A    between atoms: _473  and  _475
REMARK  199  A    between atoms: _475  and  _476
REMARK  200  A    between atoms: _478  and  _480
REMARK  201  A    between atoms: _480  and  _481
REMARK  202  A    between atoms: _480  and  _483
REMARK  203  A    between atoms: _483  and  _484
REMARK  204  A    between atoms: _487  and  _489
REMARK  205  A    between atoms: _489  and  _490
REMARK  206  A    between atoms: _492  and  _494
REMARK  207  A    between atoms: _494  and  _495
REMARK  208  A    between atoms: _494  and  _497
REMARK  209  A    between atoms: _497  and  _498
REMARK  210  A    between atoms: _501  and  _503
REMARK  211  A    between atoms: _503  and  _504
REMARK  212  A    between atoms: _503  and  _506
REMARK  213  A    between atoms: _506  and  _507
REMARK  214  A    between atoms: _512  and  _514
REMARK  215  A    between atoms: _514  and  _515
REMARK  216  A    between atoms: _514  and  _517
REMARK  217  A    between atoms: _517  and  _518
REMARK  218  A    between atoms: _521  and  _523
REMARK  219  A    between atoms: _523  and  _524
REMARK  220  A    between atoms: _523  and  _526
REMARK  221  A    between atoms: _526  and  _527
REMARK  222  A    between atoms: _527  and  _528
REMARK  223  A    between atoms: _533  and  _535
REMARK  224  A    between atoms: _535  and  _536
REMARK  225  A    between atoms: _535  and  _538
REMARK  226  A    between atoms: _538  and  _539
REMARK  227  A    between atoms: _545  and  _547
REMARK  228  A    between atoms: _547  and  _548
REMARK  229  A    between atoms: _547  and  _550
REMARK  230  A    between atoms: _550  and  _551
REMARK  231  A    between atoms: _554  and  _556
REMARK  232  A    between atoms: _556  and  _557
REMARK  233  A    between atoms: _556  and  _559
REMARK  234  A    between atoms: _559  and  _560
REMARK  235  A    between atoms: _562  and  _564
REMARK  236  A    between atoms: _564  and  _565
REMARK  237  A    between atoms: _564  and  _567
REMARK  238  A    between atoms: _567  and  _568
REMARK  239  A    between atoms: _571  and  _573
REMARK  240  A    between atoms: _573  and  _574
REMARK  241  A    between atoms: _573  and  _576
REMARK  242  A    between atoms: _576  and  _577
REMARK  243  A    between atoms: _577  and  _578
REMARK  244  A    between atoms: _578  and  _579
REMARK  245  A    between atoms: _588  and  _590
REMARK  246  A    between atoms: _590  and  _591
REMARK  247  A    between atoms: _590  and  _593
REMARK  248  A    between atoms: _593  and  _594
REMARK  249  A    between atoms: _594  and  _595
REMARK  250  A    between atoms: _595  and  _596
REMARK  251  A    between atoms: _605  and  _607
REMARK  252  A    between atoms: _607  and  _608
REMARK  253  A    between atoms: _611  and  _613
REMARK  254  A    between atoms: _613  and  _614
REMARK  255  A    between atoms: _613  and  _616
REMARK  256  A    between atoms: _616  and  _617
REMARK  257  A    between atoms: _620  and  _622
REMARK  258  A    between atoms: _622  and  _623
REMARK  259  A    between atoms: _622  and  _625
REMARK  260  A    between atoms: _625  and  _626
REMARK  261  A    between atoms: _628  and  _630
REMARK  262  A    between atoms: _630  and  _631
REMARK  263  A    between atoms: _630  and  _633
REMARK  264  A    between atoms: _633  and  _634
REMARK  265  A    between atoms: _637  and  _639
REMARK  266  A    between atoms: _639  and  _640
REMARK  267  A    between atoms: _639  and  _642
REMARK  268  A    between atoms: _642  and  _643
REMARK  269  A    between atoms: _646  and  _648
REMARK  270  A    between atoms: _648  and  _649
REMARK  271  A    between atoms: _648  and  _651
REMARK  272  A    between atoms: _651  and  _652
REMARK  273  A    between atoms: _655  and  _657
REMARK  274  A    between atoms: _657  and  _658
REMARK  275  A    between atoms: _657  and  _660
REMARK  276  A    between atoms: _660  and  _661
REMARK                            x       y       z     vdW  Elec       q    Type
REMARK                         _______ _______ _______ _____ _____    ______ ____
ROOT
ATOM      1  O   HOH     1      52.065   8.730  21.083  0.00  0.00    +0.000 OA
ENDROOT
TORSDOF 0
REMARK  Name = ../refined-set-2016/4dq2/4dq2_pocket.pdb
REMARK  276 active torsions:
REMARK  status: ('A' for Active; 'I' for Inactive)
REMARK    1  A    between atoms: _1  and  _3
REMARK    2  A    between atoms: _3  and  _4
REMARK    3  A    between atoms: _3  and  _6
REMARK    4  A    between atoms: _6  and  _7
REMARK    5  A    between atoms: _10  and  _12
REMARK    6  A    between atoms: _12  and  _13
REMARK    7  A    between atoms: _12  and  _15
REMARK    8  A    between atoms: _15  and  _16
REMARK    9  A    between atoms: _19  and  _21
REMARK   10  A    between atoms: _21  and  _22
REMARK   11  A    between atoms: _21  and  _24
REMARK   12  A    between atoms: _24  and  _25
REMARK   13  A    between atoms: _27  and  _29
REMARK   14  A    between atoms: _29  and  _30
REMARK   15  A    between atoms: _29  and  _32
REMARK   16  A    between atoms: _32  and  _33
REMARK   17  A    between atoms: _36  and  _38
REMARK   18  A    between atoms: _38  and  _39
REMARK   19  A    between atoms: _38  and  _41
REMARK   20  A    between atoms: _41  and  _42
REMARK   21  A    between atoms: _42  and  _43
REMARK   22  A    between atoms: _48  and  _50
REMARK   23  A    between atoms: _50  and  _51
REMARK   24  A    between atoms: _50  and  _53
REMARK   25  A    between atoms: _53  and  _54
REMARK   26  A    between atoms: _57  and  _59
REMARK   27  A    between atoms: _59  and  _60
REMARK   28  A    between atoms: _63  and  _65
REMARK   29  A    between atoms: _65  and  _66
REMARK   30  A    between atoms: _69  and  _71
REMARK   31  A    between atoms: _71  and  _72
REMARK   32  A    between atoms: _71  and  _74
REMARK   33  A    between atoms: _74  and  _75
REMARK   34  A    between atoms: _75  and  _76
REMARK   35  A    between atoms: _76  and  _77
REMARK   36  A    between atoms: _77  and  _78
REMARK   37  A    between atoms: _82  and  _84
REMARK   38  A    between atoms: _84  and  _85
REMARK   39  A    between atoms: _84  and  _87
REMARK   40  A    between atoms: _87  and  _88
REMARK   41  A    between atoms: _91  and  _93
REMARK   42  A    between atoms: _93  and  _94
REMARK   43  A    between atoms: _93  and  _96
REMARK   44  A    between atoms: _96  and  _97
REMARK   45  A    between atoms: _99  and  _101
REMARK   46  A    between atoms: _101  and  _102
REMARK   47  A    between atoms: _101  and  _104
REMARK   48  A    between atoms: _104  and  _105
REMARK   49  A    between atoms: _105  and  _106
REMARK   50  A    between atoms: _111  and  _113
REMARK   51  A    between atoms: _113  and  _114
REMARK   52  A    between atoms: _113  and  _116
REMARK   53  A    between atoms: _116  and  _117
REMARK   54  A    between atoms: _120  and  _122
REMARK   55  A    between atoms: _122  and  _123
REMARK   56  A    between atoms: _122  and  _125
REMARK   57  A    between atoms: _125  and  _126
REMARK   58  A    between atoms: _126  and  _127
REMARK   59  A    between atoms: _127  and  _128
REMARK   60  A    between atoms: _128  and  _129
REMARK   61  A    between atoms: _133  and  _135
REMARK   62  A    between atoms: _135  and  _136
REMARK   63  A    between atoms: _138  and  _140
REMARK   64  A    between atoms: _140  and  _141
REMARK   65  A    between atoms: _140  and  _143
REMARK   66  A    between atoms: _143  and  _144
REMARK   67  A    between atoms: _144  and  _145
REMARK   68  A    between atoms: _145  and  _146
REMARK   69  A    between atoms: _155  and  _157
REMARK   70  A    between atoms: _157  and  _158
REMARK   71  A    between atoms: _160  and  _162
REMARK   72  A    between atoms: _162  and  _163
REMARK   73  A    between atoms: _162  and  _165
REMARK   74  A    between atoms: _165  and  _166
REMARK   75  A    between atoms: _166  and  _167
REMARK   76  A    between atoms: _167  and  _168
REMARK   77  A    between atoms: _177  and  _179
REMARK   78  A    between atoms: _179  and  _180
REMARK   79  A    between atoms: _179  and  _182
REMARK   80  A    between atoms: _182  and  _183
REMARK   81  A    between atoms: _189  and  _191
REMARK   82  A    between atoms: _191  and  _192
REMARK   83  A    between atoms: _191  and  _194
REMARK   84  A    between atoms: _194  and  _195
REMARK   85  A    between atoms: _200  and  _202
REMARK   86  A    between atoms: _202  and  _203
REMARK   87  A    between atoms: _202  and  _205
REMARK   88  A    between atoms: _205  and  _206
REMARK   89  A    between atoms: _206  and  _207
REMARK   90  A    between atoms: _207  and  _208
REMARK   91  A    between atoms: _217  and  _219
REMARK   92  A    between atoms: _219  and  _220
REMARK   93  A    between atoms: _219  and  _222
REMARK   94  A    between atoms: _222  and  _223
REMARK   95  A    between atoms: _228  and  _230
REMARK   96  A    between atoms: _230  and  _231
REMARK   97  A    between atoms: _230  and  _233
REMARK   98  A    between atoms: _233  and  _234
REMARK   99  A    between atoms: _244  and  _246
REMARK  100  A    between atoms: _246  and  _247
REMARK  101  A    between atoms: _246  and  _249
REMARK  102  A    between atoms: _249  and  _250
REMARK  103  A    between atoms: _252  and  _254
REMARK  104  A    between atoms: _254  and  _255
REMARK  105  A    between atoms: _254  and  _257
REMARK  106  A    between atoms: _257  and  _258
REMARK  107  A    between atoms: _260  and  _262
REMARK  108  A    between atoms: _262  and  _263
REMARK  109  A    between atoms: _262  and  _265
REMARK  110  A    between atoms: _265  and  _266
REMARK  111  A    between atoms: _268  and  _270
REMARK  112  A    between atoms: _270  and  _271
REMARK  113  A    between atoms: _273  and  _275
REMARK  114  A    between atoms: _275  and  _276
REMARK  115  A    between atoms: _275  and  _278
REMARK  116  A    between atoms: _278  and  _279
REMARK  117  A    between atoms: _282  and  _284
REMARK  118  A    between atoms: _284  and  _285
REMARK  119  A    between atoms: _284  and  _287
REMARK  120  A    between atoms: _287  and  _288
REMARK  121  A    between atoms: _298  and  _300
REMARK  122  A    between atoms: _300  and  _301
REMARK  123  A    between atoms: _300  and  _303
REMARK  124  A    between atoms: _303  and  _304
REMARK  125  A    between atoms: _304  and  _305
REMARK  126  A    between atoms: _307  and  _309
REMARK  127  A    between atoms: _309  and  _310
REMARK  128  A    between atoms: _309  and  _312
REMARK  129  A    between atoms: _312  and  _313
REMARK  130  A    between atoms: _315  and  _317
REMARK  131  A    between atoms: _317  and  _318
REMARK  132  A    between atoms: _317  and  _320
REMARK  133  A    between atoms: _323  and  _325
REMARK  134  A    between atoms: _325  and  _326
REMARK  135  A    between atoms: _325  and  _328
REMARK  136  A    between atoms: _328  and  _329
REMARK  137  A    between atoms: _329  and  _330
REMARK  138  A    between atoms: _330  and  _331
REMARK  139  A    between atoms: _331  and  _332
REMARK  140  A    between atoms: _336  and  _338
REMARK  141  A    between atoms: _338  and  _339
REMARK  142  A    between atoms: _338  and  _341
REMARK  143  A    between atoms: _341  and  _342
REMARK  144  A    between atoms: _347  and  _349
REMARK  145  A    between atoms: _349  and  _350
REMARK  146  A    between atoms: _349  and  _352
REMARK  147  A    between atoms: _352  and  _353
REMARK  148  A    between atoms: _356  and  _358
REMARK  149  A    between atoms: _358  and  _359
REMARK  150  A    between atoms: _358  and  _361
REMARK  151  A    between atoms: _361  and  _362
REMARK  152  A    between atoms: _365  and  _367
REMARK  153  A    between atoms: _367  and  _368
REMARK  154  A    between atoms: _367  and  _370
REMARK  155  A    between atoms: _370  and  _371
REMARK  156  A    between atoms: _376  and  _377
REMARK  157  A    between atoms: _379  and  _381
REMARK  158  A    between atoms: _381  and  _382
REMARK  159  A    between atoms: _384  and  _386
REMARK  160  A    between atoms: _386  and  _387
REMARK  161  A    between atoms: _386  and  _389
REMARK  162  A    between atoms: _389  and  _390
REMARK  163  A    between atoms: _390  and  _391
REMARK  164  A    between atoms: _391  and  _392
REMARK  165  A    between atoms: _392  and  _393
REMARK  166  A    between atoms: _397  and  _399
REMARK  167  A    between atoms: _399  and  _400
REMARK  168  A    between atoms: _399  and  _402
REMARK  169  A    between atoms: _405  and  _407
REMARK  170  A    between atoms: _407  and  _408
REMARK  171  A    between atoms: _407  and  _410
REMARK  172  A    between atoms: _412  and  _414
REMARK  173  A    between atoms: _414  and  _415
REMARK  174  A    between atoms: _417  and  _419
REMARK  175  A    between atoms: _419  and  _420
REMARK  176  A    between atoms: _419  and  _422
REMARK  177  A    between atoms: _422  and  _423
REMARK  178  A    between atoms: _429  and  _431
REMARK  179  A    between atoms: _431  and  _432
REMARK  180  A    between atoms: _431  and  _434
REMARK  181  A    between atoms: _434  and  _435
REMARK  182  A    between atoms: _438  and  _440
REMARK  183  A    between atoms: _440  and  _441
REMARK  184  A    between atoms: _440  and  _443
REMARK  185  A    between atoms: _443  and  _444
REMARK  186  A    between atoms: _447  and  _449
REMARK  187  A    between atoms: _449  and  _450
REMARK  188  A    between atoms: _449  and  _452
REMARK  189  A    between atoms: _452  and  _453
REMARK  190  A    between atoms: _453  and  _454
REMARK  191  A    between atoms: _457  and  _459
REMARK  192  A    between atoms: _459  and  _460
REMARK  193  A    between atoms: _459  and  _462
REMARK  194  A    between atoms: _462  and  _463
REMARK  195  A    between atoms: _466  and  _468
REMARK  196  A    between atoms: _468  and  _469
REMARK  197  A    between atoms: _468  and  _471
REMARK  198  A    between atoms: _473  and  _475
REMARK  199  A    between atoms: _475  and  _476
REMARK  200  A    between atoms: _478  and  _480
REMARK  201  A    between atoms: _480  and  _481
REMARK  202  A    between atoms: _480  and  _483
REMARK  203  A    between atoms: _483  and  _484
REMARK  204  A    between atoms: _487  and  _489
REMARK  205  A    between atoms: _489  and  _490
REMARK  206  A    between atoms: _492  and  _494
REMARK  207  A    between atoms: _494  and  _495
REMARK  208  A    between atoms: _494  and  _497
REMARK  209  A    between atoms: _497  and  _498
REMARK  210  A    between atoms: _501  and  _503
REMARK  211  A    between atoms: _503  and  _504
REMARK  212  A    between atoms: _503  and  _506
REMARK  213  A    between atoms: _506  and  _507
REMARK  214  A    between atoms: _512  and  _514
REMARK  215  A    between atoms: _514  and  _515
REMARK  216  A    between atoms: _514  and  _517
REMARK  217  A    between atoms: _517  and  _518
REMARK  218  A    between atoms: _521  and  _523
REMARK  219  A    between atoms: _523  and  _524
REMARK  220  A    between atoms: _523  and  _526
REMARK  221  A    between atoms: _526  and  _527
REMARK  222  A    between atoms: _527  and  _528
REMARK  223  A    between atoms: _533  and  _535
REMARK  224  A    between atoms: _535  and  _536
REMARK  225  A    between atoms: _535  and  _538
REMARK  226  A    between atoms: _538  and  _539
REMARK  227  A    between atoms: _545  and  _547
REMARK  228  A    between atoms: _547  and  _548
REMARK  229  A    between atoms: _547  and  _550
REMARK  230  A    between atoms: _550  and  _551
REMARK  231  A    between atoms: _554  and  _556
REMARK  232  A    between atoms: _556  and  _557
REMARK  233  A    between atoms: _556  and  _559
REMARK  234  A    between atoms: _559  and  _560
REMARK  235  A    between atoms: _562  and  _564
REMARK  236  A    between atoms: _564  and  _565
REMARK  237  A    between atoms: _564  and  _567
REMARK  238  A    between atoms: _567  and  _568
REMARK  239  A    between atoms: _571  and  _573
REMARK  240  A    between atoms: _573  and  _574
REMARK  241  A    between atoms: _573  and  _576
REMARK  242  A    between atoms: _576  and  _577
REMARK  243  A    between atoms: _577  and  _578
REMARK  244  A    between atoms: _578  and  _579
REMARK  245  A    between atoms: _588  and  _590
REMARK  246  A    between atoms: _590  and  _591
REMARK  247  A    between atoms: _590  and  _593
REMARK  248  A    between atoms: _593  and  _594
REMARK  249  A    between atoms: _594  and  _595
REMARK  250  A    between atoms: _595  and  _596
REMARK  251  A    between atoms: _605  and  _607
REMARK  252  A    between atoms: _607  and  _608
REMARK  253  A    between atoms: _611  and  _613
REMARK  254  A    between atoms: _613  and  _614
REMARK  255  A    between atoms: _613  and  _616
REMARK  256  A    between atoms: _616  and  _617
REMARK  257  A    between atoms: _620  and  _622
REMARK  258  A    between atoms: _622  and  _623
REMARK  259  A    between atoms: _622  and  _625
REMARK  260  A    between atoms: _625  and  _626
REMARK  261  A    between atoms: _628  and  _630
REMARK  262  A    between atoms: _630  and  _631
REMARK  263  A    between atoms: _630  and  _633
REMARK  264  A    between atoms: _633  and  _634
REMARK  265  A    between atoms: _637  and  _639
REMARK  266  A    between atoms: _639  and  _640
REMARK  267  A    between atoms: _639  and  _642
REMARK  268  A    between atoms: _642  and  _643
REMARK  269  A    between atoms: _646  and  _648
REMARK  270  A    between atoms: _648  and  _649
REMARK  271  A    between atoms: _648  and  _651
REMARK  272  A    between atoms: _651  and  _652
REMARK  273  A    between atoms: _655  and  _657
REMARK  274  A    between atoms: _657  and  _658
REMARK  275  A    between atoms: _657  and  _660
REMARK  276  A    between atoms: _660  and  _661
REMARK                            x       y       z     vdW  Elec       q    Type
REMARK                         _______ _______ _______ _____ _____    ______ ____
ROOT
ATOM      1  O   HOH     1      52.680  18.353  10.482  0.00  0.00    +0.000 OA
ENDROOT
TORSDOF 0
REMARK  Name = ../refined-set-2016/4dq2/4dq2_pocket.pdb
REMARK  276 active torsions:
REMARK  status: ('A' for Active; 'I' for Inactive)
REMARK    1  A    between atoms: _1  and  _3
REMARK    2  A    between atoms: _3  and  _4
REMARK    3  A    between atoms: _3  and  _6
REMARK    4  A    between atoms: _6  and  _7
REMARK    5  A    between atoms: _10  and  _12
REMARK    6  A    between atoms: _12  and  _13
REMARK    7  A    between atoms: _12  and  _15
REMARK    8  A    between atoms: _15  and  _16
REMARK    9  A    between atoms: _19  and  _21
REMARK   10  A    between atoms: _21  and  _22
REMARK   11  A    between atoms: _21  and  _24
REMARK   12  A    between atoms: _24  and  _25
REMARK   13  A    between atoms: _27  and  _29
REMARK   14  A    between atoms: _29  and  _30
REMARK   15  A    between atoms: _29  and  _32
REMARK   16  A    between atoms: _32  and  _33
REMARK   17  A    between atoms: _36  and  _38
REMARK   18  A    between atoms: _38  and  _39
REMARK   19  A    between atoms: _38  and  _41
REMARK   20  A    between atoms: _41  and  _42
REMARK   21  A    between atoms: _42  and  _43
REMARK   22  A    between atoms: _48  and  _50
REMARK   23  A    between atoms: _50  and  _51
REMARK   24  A    between atoms: _50  and  _53
REMARK   25  A    between atoms: _53  and  _54
REMARK   26  A    between atoms: _57  and  _59
REMARK   27  A    between atoms: _59  and  _60
REMARK   28  A    between atoms: _63  and  _65
REMARK   29  A    between atoms: _65  and  _66
REMARK   30  A    between atoms: _69  and  _71
REMARK   31  A    between atoms: _71  and  _72
REMARK   32  A    between atoms: _71  and  _74
REMARK   33  A    between atoms: _74  and  _75
REMARK   34  A    between atoms: _75  and  _76
REMARK   35  A    between atoms: _76  and  _77
REMARK   36  A    between atoms: _77  and  _78
REMARK   37  A    between atoms: _82  and  _84
REMARK   38  A    between atoms: _84  and  _85
REMARK   39  A    between atoms: _84  and  _87
REMARK   40  A    between atoms: _87  and  _88
REMARK   41  A    between atoms: _91  and  _93
REMARK   42  A    between atoms: _93  and  _94
REMARK   43  A    between atoms: _93  and  _96
REMARK   44  A    between atoms: _96  and  _97
REMARK   45  A    between atoms: _99  and  _101
REMARK   46  A    between atoms: _101  and  _102
REMARK   47  A    between atoms: _101  and  _104
REMARK   48  A    between atoms: _104  and  _105
REMARK   49  A    between atoms: _105  and  _106
REMARK   50  A    between atoms: _111  and  _113
REMARK   51  A    between atoms: _113  and  _114
REMARK   52  A    between atoms: _113  and  _116
REMARK   53  A    between atoms: _116  and  _117
REMARK   54  A    between atoms: _120  and  _122
REMARK   55  A    between atoms: _122  and  _123
REMARK   56  A    between atoms: _122  and  _125
REMARK   57  A    between atoms: _125  and  _126
REMARK   58  A    between atoms: _126  and  _127
REMARK   59  A    between atoms: _127  and  _128
REMARK   60  A    between atoms: _128  and  _129
REMARK   61  A    between atoms: _133  and  _135
REMARK   62  A    between atoms: _135  and  _136
REMARK   63  A    between atoms: _138  and  _140
REMARK   64  A    between atoms: _140  and  _141
REMARK   65  A    between atoms: _140  and  _143
REMARK   66  A    between atoms: _143  and  _144
REMARK   67  A    between atoms: _144  and  _145
REMARK   68  A    between atoms: _145  and  _146
REMARK   69  A    between atoms: _155  and  _157
REMARK   70  A    between atoms: _157  and  _158
REMARK   71  A    between atoms: _160  and  _162
REMARK   72  A    between atoms: _162  and  _163
REMARK   73  A    between atoms: _162  and  _165
REMARK   74  A    between atoms: _165  and  _166
REMARK   75  A    between atoms: _166  and  _167
REMARK   76  A    between atoms: _167  and  _168
REMARK   77  A    between atoms: _177  and  _179
REMARK   78  A    between atoms: _179  and  _180
REMARK   79  A    between atoms: _179  and  _182
REMARK   80  A    between atoms: _182  and  _183
REMARK   81  A    between atoms: _189  and  _191
REMARK   82  A    between atoms: _191  and  _192
REMARK   83  A    between atoms: _191  and  _194
REMARK   84  A    between atoms: _194  and  _195
REMARK   85  A    between atoms: _200  and  _202
REMARK   86  A    between atoms: _202  and  _203
REMARK   87  A    between atoms: _202  and  _205
REMARK   88  A    between atoms: _205  and  _206
REMARK   89  A    between atoms: _206  and  _207
REMARK   90  A    between atoms: _207  and  _208
REMARK   91  A    between atoms: _217  and  _219
REMARK   92  A    between atoms: _219  and  _220
REMARK   93  A    between atoms: _219  and  _222
REMARK   94  A    between atoms: _222  and  _223
REMARK   95  A    between atoms: _228  and  _230
REMARK   96  A    between atoms: _230  and  _231
REMARK   97  A    between atoms: _230  and  _233
REMARK   98  A    between atoms: _233  and  _234
REMARK   99  A    between atoms: _244  and  _246
REMARK  100  A    between atoms: _246  and  _247
REMARK  101  A    between atoms: _246  and  _249
REMARK  102  A    between atoms: _249  and  _250
REMARK  103  A    between atoms: _252  and  _254
REMARK  104  A    between atoms: _254  and  _255
REMARK  105  A    between atoms: _254  and  _257
REMARK  106  A    between atoms: _257  and  _258
REMARK  107  A    between atoms: _260  and  _262
REMARK  108  A    between atoms: _262  and  _263
REMARK  109  A    between atoms: _262  and  _265
REMARK  110  A    between atoms: _265  and  _266
REMARK  111  A    between atoms: _268  and  _270
REMARK  112  A    between atoms: _270  and  _271
REMARK  113  A    between atoms: _273  and  _275
REMARK  114  A    between atoms: _275  and  _276
REMARK  115  A    between atoms: _275  and  _278
REMARK  116  A    between atoms: _278  and  _279
REMARK  117  A    between atoms: _282  and  _284
REMARK  118  A    between atoms: _284  and  _285
REMARK  119  A    between atoms: _284  and  _287
REMARK  120  A    between atoms: _287  and  _288
REMARK  121  A    between atoms: _298  and  _300
REMARK  122  A    between atoms: _300  and  _301
REMARK  123  A    between atoms: _300  and  _303
REMARK  124  A    between atoms: _303  and  _304
REMARK  125  A    between atoms: _304  and  _305
REMARK  126  A    between atoms: _307  and  _309
REMARK  127  A    between atoms: _309  and  _310
REMARK  128  A    between atoms: _309  and  _312
REMARK  129  A    between atoms: _312  and  _313
REMARK  130  A    between atoms: _315  and  _317
REMARK  131  A    between atoms: _317  and  _318
REMARK  132  A    between atoms: _317  and  _320
REMARK  133  A    between atoms: _323  and  _325
REMARK  134  A    between atoms: _325  and  _326
REMARK  135  A    between atoms: _325  and  _328
REMARK  136  A    between atoms: _328  and  _329
REMARK  137  A    between atoms: _329  and  _330
REMARK  138  A    between atoms: _330  and  _331
REMARK  139  A    between atoms: _331  and  _332
REMARK  140  A    between atoms: _336  and  _338
REMARK  141  A    between atoms: _338  and  _339
REMARK  142  A    between atoms: _338  and  _341
REMARK  143  A    between atoms: _341  and  _342
REMARK  144  A    between atoms: _347  and  _349
REMARK  145  A    between atoms: _349  and  _350
REMARK  146  A    between atoms: _349  and  _352
REMARK  147  A    between atoms: _352  and  _353
REMARK  148  A    between atoms: _356  and  _358
REMARK  149  A    between atoms: _358  and  _359
REMARK  150  A    between atoms: _358  and  _361
REMARK  151  A    between atoms: _361  and  _362
REMARK  152  A    between atoms: _365  and  _367
REMARK  153  A    between atoms: _367  and  _368
REMARK  154  A    between atoms: _367  and  _370
REMARK  155  A    between atoms: _370  and  _371
REMARK  156  A    between atoms: _376  and  _377
REMARK  157  A    between atoms: _379  and  _381
REMARK  158  A    between atoms: _381  and  _382
REMARK  159  A    between atoms: _384  and  _386
REMARK  160  A    between atoms: _386  and  _387
REMARK  161  A    between atoms: _386  and  _389
REMARK  162  A    between atoms: _389  and  _390
REMARK  163  A    between atoms: _390  and  _391
REMARK  164  A    between atoms: _391  and  _392
REMARK  165  A    between atoms: _392  and  _393
REMARK  166  A    between atoms: _397  and  _399
REMARK  167  A    between atoms: _399  and  _400
REMARK  168  A    between atoms: _399  and  _402
REMARK  169  A    between atoms: _405  and  _407
REMARK  170  A    between atoms: _407  and  _408
REMARK  171  A    between atoms: _407  and  _410
REMARK  172  A    between atoms: _412  and  _414
REMARK  173  A    between atoms: _414  and  _415
REMARK  174  A    between atoms: _417  and  _419
REMARK  175  A    between atoms: _419  and  _420
REMARK  176  A    between atoms: _419  and  _422
REMARK  177  A    between atoms: _422  and  _423
REMARK  178  A    between atoms: _429  and  _431
REMARK  179  A    between atoms: _431  and  _432
REMARK  180  A    between atoms: _431  and  _434
REMARK  181  A    between atoms: _434  and  _435
REMARK  182  A    between atoms: _438  and  _440
REMARK  183  A    between atoms: _440  and  _441
REMARK  184  A    between atoms: _440  and  _443
REMARK  185  A    between atoms: _443  and  _444
REMARK  186  A    between atoms: _447  and  _449
REMARK  187  A    between atoms: _449  and  _450
REMARK  188  A    between atoms: _449  and  _452
REMARK  189  A    between atoms: _452  and  _453
REMARK  190  A    between atoms: _453  and  _454
REMARK  191  A    between atoms: _457  and  _459
REMARK  192  A    between atoms: _459  and  _460
REMARK  193  A    between atoms: _459  and  _462
REMARK  194  A    between atoms: _462  and  _463
REMARK  195  A    between atoms: _466  and  _468
REMARK  196  A    between atoms: _468  and  _469
REMARK  197  A    between atoms: _468  and  _471
REMARK  198  A    between atoms: _473  and  _475
REMARK  199  A    between atoms: _475  and  _476
REMARK  200  A    between atoms: _478  and  _480
REMARK  201  A    between atoms: _480  and  _481
REMARK  202  A    between atoms: _480  and  _483
REMARK  203  A    between atoms: _483  and  _484
REMARK  204  A    between atoms: _487  and  _489
REMARK  205  A    between atoms: _489  and  _490
REMARK  206  A    between atoms: _492  and  _494
REMARK  207  A    between atoms: _494  and  _495
REMARK  208  A    between atoms: _494  and  _497
REMARK  209  A    between atoms: _497  and  _498
REMARK  210  A    between atoms: _501  and  _503
REMARK  211  A    between atoms: _503  and  _504
REMARK  212  A    between atoms: _503  and  _506
REMARK  213  A    between atoms: _506  and  _507
REMARK  214  A    between atoms: _512  and  _514
REMARK  215  A    between atoms: _514  and  _515
REMARK  216  A    between atoms: _514  and  _517
REMARK  217  A    between atoms: _517  and  _518
REMARK  218  A    between atoms: _521  and  _523
REMARK  219  A    between atoms: _523  and  _524
REMARK  220  A    between atoms: _523  and  _526
REMARK  221  A    between atoms: _526  and  _527
REMARK  222  A    between atoms: _527  and  _528
REMARK  223  A    between atoms: _533  and  _535
REMARK  224  A    between atoms: _535  and  _536
REMARK  225  A    between atoms: _535  and  _538
REMARK  226  A    between atoms: _538  and  _539
REMARK  227  A    between atoms: _545  and  _547
REMARK  228  A    between atoms: _547  and  _548
REMARK  229  A    between atoms: _547  and  _550
REMARK  230  A    between atoms: _550  and  _551
REMARK  231  A    between atoms: _554  and  _556
REMARK  232  A    between atoms: _556  and  _557
REMARK  233  A    between atoms: _556  and  _559
REMARK  234  A    between atoms: _559  and  _560
REMARK  235  A    between atoms: _562  and  _564
REMARK  236  A    between atoms: _564  and  _565
REMARK  237  A    between atoms: _564  and  _567
REMARK  238  A    between atoms: _567  and  _568
REMARK  239  A    between atoms: _571  and  _573
REMARK  240  A    between atoms: _573  and  _574
REMARK  241  A    between atoms: _573  and  _576
REMARK  242  A    between atoms: _576  and  _577
REMARK  243  A    between atoms: _577  and  _578
REMARK  244  A    between atoms: _578  and  _579
REMARK  245  A    between atoms: _588  and  _590
REMARK  246  A    between atoms: _590  and  _591
REMARK  247  A    between atoms: _590  and  _593
REMARK  248  A    between atoms: _593  and  _594
REMARK  249  A    between atoms: _594  and  _595
REMARK  250  A    between atoms: _595  and  _596
REMARK  251  A    between atoms: _605  and  _607
REMARK  252  A    between atoms: _607  and  _608
REMARK  253  A    between atoms: _611  and  _613
REMARK  254  A    between atoms: _613  and  _614
REMARK  255  A    between atoms: _613  and  _616
REMARK  256  A    between atoms: _616  and  _617
REMARK  257  A    between atoms: _620  and  _622
REMARK  258  A    between atoms: _622  and  _623
REMARK  259  A    between atoms: _622  and  _625
REMARK  260  A    between atoms: _625  and  _626
REMARK  261  A    between atoms: _628  and  _630
REMARK  262  A    between atoms: _630  and  _631
REMARK  263  A    between atoms: _630  and  _633
REMARK  264  A    between atoms: _633  and  _634
REMARK  265  A    between atoms: _637  and  _639
REMARK  266  A    between atoms: _639  and  _640
REMARK  267  A    between atoms: _639  and  _642
REMARK  268  A    between atoms: _642  and  _643
REMARK  269  A    between atoms: _646  and  _648
REMARK  270  A    between atoms: _648  and  _649
REMARK  271  A    between atoms: _648  and  _651
REMARK  272  A    between atoms: _651  and  _652
REMARK  273  A    between atoms: _655  and  _657
REMARK  274  A    between atoms: _657  and  _658
REMARK  275  A    between atoms: _657  and  _660
REMARK  276  A    between atoms: _660  and  _661
REMARK                            x       y       z     vdW  Elec       q    Type
REMARK                         _______ _______ _______ _____ _____    ______ ____
ROOT
ATOM      1  O   HOH     1      50.053  19.133  11.073  0.00  0.00    +0.000 OA
ENDROOT
TORSDOF 0
REMARK  Name = ../refined-set-2016/4dq2/4dq2_pocket.pdb
REMARK  276 active torsions:
REMARK  status: ('A' for Active; 'I' for Inactive)
REMARK    1  A    between atoms: _1  and  _3
REMARK    2  A    between atoms: _3  and  _4
REMARK    3  A    between atoms: _3  and  _6
REMARK    4  A    between atoms: _6  and  _7
REMARK    5  A    between atoms: _10  and  _12
REMARK    6  A    between atoms: _12  and  _13
REMARK    7  A    between atoms: _12  and  _15
REMARK    8  A    between atoms: _15  and  _16
REMARK    9  A    between atoms: _19  and  _21
REMARK   10  A    between atoms: _21  and  _22
REMARK   11  A    between atoms: _21  and  _24
REMARK   12  A    between atoms: _24  and  _25
REMARK   13  A    between atoms: _27  and  _29
REMARK   14  A    between atoms: _29  and  _30
REMARK   15  A    between atoms: _29  and  _32
REMARK   16  A    between atoms: _32  and  _33
REMARK   17  A    between atoms: _36  and  _38
REMARK   18  A    between atoms: _38  and  _39
REMARK   19  A    between atoms: _38  and  _41
REMARK   20  A    between atoms: _41  and  _42
REMARK   21  A    between atoms: _42  and  _43
REMARK   22  A    between atoms: _48  and  _50
REMARK   23  A    between atoms: _50  and  _51
REMARK   24  A    between atoms: _50  and  _53
REMARK   25  A    between atoms: _53  and  _54
REMARK   26  A    between atoms: _57  and  _59
REMARK   27  A    between atoms: _59  and  _60
REMARK   28  A    between atoms: _63  and  _65
REMARK   29  A    between atoms: _65  and  _66
REMARK   30  A    between atoms: _69  and  _71
REMARK   31  A    between atoms: _71  and  _72
REMARK   32  A    between atoms: _71  and  _74
REMARK   33  A    between atoms: _74  and  _75
REMARK   34  A    between atoms: _75  and  _76
REMARK   35  A    between atoms: _76  and  _77
REMARK   36  A    between atoms: _77  and  _78
REMARK   37  A    between atoms: _82  and  _84
REMARK   38  A    between atoms: _84  and  _85
REMARK   39  A    between atoms: _84  and  _87
REMARK   40  A    between atoms: _87  and  _88
REMARK   41  A    between atoms: _91  and  _93
REMARK   42  A    between atoms: _93  and  _94
REMARK   43  A    between atoms: _93  and  _96
REMARK   44  A    between atoms: _96  and  _97
REMARK   45  A    between atoms: _99  and  _101
REMARK   46  A    between atoms: _101  and  _102
REMARK   47  A    between atoms: _101  and  _104
REMARK   48  A    between atoms: _104  and  _105
REMARK   49  A    between atoms: _105  and  _106
REMARK   50  A    between atoms: _111  and  _113
REMARK   51  A    between atoms: _113  and  _114
REMARK   52  A    between atoms: _113  and  _116
REMARK   53  A    between atoms: _116  and  _117
REMARK   54  A    between atoms: _120  and  _122
REMARK   55  A    between atoms: _122  and  _123
REMARK   56  A    between atoms: _122  and  _125
REMARK   57  A    between atoms: _125  and  _126
REMARK   58  A    between atoms: _126  and  _127
REMARK   59  A    between atoms: _127  and  _128
REMARK   60  A    between atoms: _128  and  _129
REMARK   61  A    between atoms: _133  and  _135
REMARK   62  A    between atoms: _135  and  _136
REMARK   63  A    between atoms: _138  and  _140
REMARK   64  A    between atoms: _140  and  _141
REMARK   65  A    between atoms: _140  and  _143
REMARK   66  A    between atoms: _143  and  _144
REMARK   67  A    between atoms: _144  and  _145
REMARK   68  A    between atoms: _145  and  _146
REMARK   69  A    between atoms: _155  and  _157
REMARK   70  A    between atoms: _157  and  _158
REMARK   71  A    between atoms: _160  and  _162
REMARK   72  A    between atoms: _162  and  _163
REMARK   73  A    between atoms: _162  and  _165
REMARK   74  A    between atoms: _165  and  _166
REMARK   75  A    between atoms: _166  and  _167
REMARK   76  A    between atoms: _167  and  _168
REMARK   77  A    between atoms: _177  and  _179
REMARK   78  A    between atoms: _179  and  _180
REMARK   79  A    between atoms: _179  and  _182
REMARK   80  A    between atoms: _182  and  _183
REMARK   81  A    between atoms: _189  and  _191
REMARK   82  A    between atoms: _191  and  _192
REMARK   83  A    between atoms: _191  and  _194
REMARK   84  A    between atoms: _194  and  _195
REMARK   85  A    between atoms: _200  and  _202
REMARK   86  A    between atoms: _202  and  _203
REMARK   87  A    between atoms: _202  and  _205
REMARK   88  A    between atoms: _205  and  _206
REMARK   89  A    between atoms: _206  and  _207
REMARK   90  A    between atoms: _207  and  _208
REMARK   91  A    between atoms: _217  and  _219
REMARK   92  A    between atoms: _219  and  _220
REMARK   93  A    between atoms: _219  and  _222
REMARK   94  A    between atoms: _222  and  _223
REMARK   95  A    between atoms: _228  and  _230
REMARK   96  A    between atoms: _230  and  _231
REMARK   97  A    between atoms: _230  and  _233
REMARK   98  A    between atoms: _233  and  _234
REMARK   99  A    between atoms: _244  and  _246
REMARK  100  A    between atoms: _246  and  _247
REMARK  101  A    between atoms: _246  and  _249
REMARK  102  A    between atoms: _249  and  _250
REMARK  103  A    between atoms: _252  and  _254
REMARK  104  A    between atoms: _254  and  _255
REMARK  105  A    between atoms: _254  and  _257
REMARK  106  A    between atoms: _257  and  _258
REMARK  107  A    between atoms: _260  and  _262
REMARK  108  A    between atoms: _262  and  _263
REMARK  109  A    between atoms: _262  and  _265
REMARK  110  A    between atoms: _265  and  _266
REMARK  111  A    between atoms: _268  and  _270
REMARK  112  A    between atoms: _270  and  _271
REMARK  113  A    between atoms: _273  and  _275
REMARK  114  A    between atoms: _275  and  _276
REMARK  115  A    between atoms: _275  and  _278
REMARK  116  A    between atoms: _278  and  _279
REMARK  117  A    between atoms: _282  and  _284
REMARK  118  A    between atoms: _284  and  _285
REMARK  119  A    between atoms: _284  and  _287
REMARK  120  A    between atoms: _287  and  _288
REMARK  121  A    between atoms: _298  and  _300
REMARK  122  A    between atoms: _300  and  _301
REMARK  123  A    between atoms: _300  and  _303
REMARK  124  A    between atoms: _303  and  _304
REMARK  125  A    between atoms: _304  and  _305
REMARK  126  A    between atoms: _307  and  _309
REMARK  127  A    between atoms: _309  and  _310
REMARK  128  A    between atoms: _309  and  _312
REMARK  129  A    between atoms: _312  and  _313
REMARK  130  A    between atoms: _315  and  _317
REMARK  131  A    between atoms: _317  and  _318
REMARK  132  A    between atoms: _317  and  _320
REMARK  133  A    between atoms: _323  and  _325
REMARK  134  A    between atoms: _325  and  _326
REMARK  135  A    between atoms: _325  and  _328
REMARK  136  A    between atoms: _328  and  _329
REMARK  137  A    between atoms: _329  and  _330
REMARK  138  A    between atoms: _330  and  _331
REMARK  139  A    between atoms: _331  and  _332
REMARK  140  A    between atoms: _336  and  _338
REMARK  141  A    between atoms: _338  and  _339
REMARK  142  A    between atoms: _338  and  _341
REMARK  143  A    between atoms: _341  and  _342
REMARK  144  A    between atoms: _347  and  _349
REMARK  145  A    between atoms: _349  and  _350
REMARK  146  A    between atoms: _349  and  _352
REMARK  147  A    between atoms: _352  and  _353
REMARK  148  A    between atoms: _356  and  _358
REMARK  149  A    between atoms: _358  and  _359
REMARK  150  A    between atoms: _358  and  _361
REMARK  151  A    between atoms: _361  and  _362
REMARK  152  A    between atoms: _365  and  _367
REMARK  153  A    between atoms: _367  and  _368
REMARK  154  A    between atoms: _367  and  _370
REMARK  155  A    between atoms: _370  and  _371
REMARK  156  A    between atoms: _376  and  _377
REMARK  157  A    between atoms: _379  and  _381
REMARK  158  A    between atoms: _381  and  _382
REMARK  159  A    between atoms: _384  and  _386
REMARK  160  A    between atoms: _386  and  _387
REMARK  161  A    between atoms: _386  and  _389
REMARK  162  A    between atoms: _389  and  _390
REMARK  163  A    between atoms: _390  and  _391
REMARK  164  A    between atoms: _391  and  _392
REMARK  165  A    between atoms: _392  and  _393
REMARK  166  A    between atoms: _397  and  _399
REMARK  167  A    between atoms: _399  and  _400
REMARK  168  A    between atoms: _399  and  _402
REMARK  169  A    between atoms: _405  and  _407
REMARK  170  A    between atoms: _407  and  _408
REMARK  171  A    between atoms: _407  and  _410
REMARK  172  A    between atoms: _412  and  _414
REMARK  173  A    between atoms: _414  and  _415
REMARK  174  A    between atoms: _417  and  _419
REMARK  175  A    between atoms: _419  and  _420
REMARK  176  A    between atoms: _419  and  _422
REMARK  177  A    between atoms: _422  and  _423
REMARK  178  A    between atoms: _429  and  _431
REMARK  179  A    between atoms: _431  and  _432
REMARK  180  A    between atoms: _431  and  _434
REMARK  181  A    between atoms: _434  and  _435
REMARK  182  A    between atoms: _438  and  _440
REMARK  183  A    between atoms: _440  and  _441
REMARK  184  A    between atoms: _440  and  _443
REMARK  185  A    between atoms: _443  and  _444
REMARK  186  A    between atoms: _447  and  _449
REMARK  187  A    between atoms: _449  and  _450
REMARK  188  A    between atoms: _449  and  _452
REMARK  189  A    between atoms: _452  and  _453
REMARK  190  A    between atoms: _453  and  _454
REMARK  191  A    between atoms: _457  and  _459
REMARK  192  A    between atoms: _459  and  _460
REMARK  193  A    between atoms: _459  and  _462
REMARK  194  A    between atoms: _462  and  _463
REMARK  195  A    between atoms: _466  and  _468
REMARK  196  A    between atoms: _468  and  _469
REMARK  197  A    between atoms: _468  and  _471
REMARK  198  A    between atoms: _473  and  _475
REMARK  199  A    between atoms: _475  and  _476
REMARK  200  A    between atoms: _478  and  _480
REMARK  201  A    between atoms: _480  and  _481
REMARK  202  A    between atoms: _480  and  _483
REMARK  203  A    between atoms: _483  and  _484
REMARK  204  A    between atoms: _487  and  _489
REMARK  205  A    between atoms: _489  and  _490
REMARK  206  A    between atoms: _492  and  _494
REMARK  207  A    between atoms: _494  and  _495
REMARK  208  A    between atoms: _494  and  _497
REMARK  209  A    between atoms: _497  and  _498
REMARK  210  A    between atoms: _501  and  _503
REMARK  211  A    between atoms: _503  and  _504
REMARK  212  A    between atoms: _503  and  _506
REMARK  213  A    between atoms: _506  and  _507
REMARK  214  A    between atoms: _512  and  _514
REMARK  215  A    between atoms: _514  and  _515
REMARK  216  A    between atoms: _514  and  _517
REMARK  217  A    between atoms: _517  and  _518
REMARK  218  A    between atoms: _521  and  _523
REMARK  219  A    between atoms: _523  and  _524
REMARK  220  A    between atoms: _523  and  _526
REMARK  221  A    between atoms: _526  and  _527
REMARK  222  A    between atoms: _527  and  _528
REMARK  223  A    between atoms: _533  and  _535
REMARK  224  A    between atoms: _535  and  _536
REMARK  225  A    between atoms: _535  and  _538
REMARK  226  A    between atoms: _538  and  _539
REMARK  227  A    between atoms: _545  and  _547
REMARK  228  A    between atoms: _547  and  _548
REMARK  229  A    between atoms: _547  and  _550
REMARK  230  A    between atoms: _550  and  _551
REMARK  231  A    between atoms: _554  and  _556
REMARK  232  A    between atoms: _556  and  _557
REMARK  233  A    between atoms: _556  and  _559
REMARK  234  A    between atoms: _559  and  _560
REMARK  235  A    between atoms: _562  and  _564
REMARK  236  A    between atoms: _564  and  _565
REMARK  237  A    between atoms: _564  and  _567
REMARK  238  A    between atoms: _567  and  _568
REMARK  239  A    between atoms: _571  and  _573
REMARK  240  A    between atoms: _573  and  _574
REMARK  241  A    between atoms: _573  and  _576
REMARK  242  A    between atoms: _576  and  _577
REMARK  243  A    between atoms: _577  and  _578
REMARK  244  A    between atoms: _578  and  _579
REMARK  245  A    between atoms: _588  and  _590
REMARK  246  A    between atoms: _590  and  _591
REMARK  247  A    between atoms: _590  and  _593
REMARK  248  A    between atoms: _593  and  _594
REMARK  249  A    between atoms: _594  and  _595
REMARK  250  A    between atoms: _595  and  _596
REMARK  251  A    between atoms: _605  and  _607
REMARK  252  A    between atoms: _607  and  _608
REMARK  253  A    between atoms: _611  and  _613
REMARK  254  A    between atoms: _613  and  _614
REMARK  255  A    between atoms: _613  and  _616
REMARK  256  A    between atoms: _616  and  _617
REMARK  257  A    between atoms: _620  and  _622
REMARK  258  A    between atoms: _622  and  _623
REMARK  259  A    between atoms: _622  and  _625
REMARK  260  A    between atoms: _625  and  _626
REMARK  261  A    between atoms: _628  and  _630
REMARK  262  A    between atoms: _630  and  _631
REMARK  263  A    between atoms: _630  and  _633
REMARK  264  A    between atoms: _633  and  _634
REMARK  265  A    between atoms: _637  and  _639
REMARK  266  A    between atoms: _639  and  _640
REMARK  267  A    between atoms: _639  and  _642
REMARK  268  A    between atoms: _642  and  _643
REMARK  269  A    between atoms: _646  and  _648
REMARK  270  A    between atoms: _648  and  _649
REMARK  271  A    between atoms: _648  and  _651
REMARK  272  A    between atoms: _651  and  _652
REMARK  273  A    between atoms: _655  and  _657
REMARK  274  A    between atoms: _657  and  _658
REMARK  275  A    between atoms: _657  and  _660
REMARK  276  A    between atoms: _660  and  _661
REMARK                            x       y       z     vdW  Elec       q    Type
REMARK                         _______ _______ _______ _____ _____    ______ ____
ROOT
ATOM      1  O   HOH     1      51.539  10.762  25.929  0.00  0.00    +0.000 OA
ENDROOT
TORSDOF 0
REMARK  Name = ../refined-set-2016/4dq2/4dq2_pocket.pdb
REMARK  276 active torsions:
REMARK  status: ('A' for Active; 'I' for Inactive)
REMARK    1  A    between atoms: _1  and  _3
REMARK    2  A    between atoms: _3  and  _4
REMARK    3  A    between atoms: _3  and  _6
REMARK    4  A    between atoms: _6  and  _7
REMARK    5  A    between atoms: _10  and  _12
REMARK    6  A    between atoms: _12  and  _13
REMARK    7  A    between atoms: _12  and  _15
REMARK    8  A    between atoms: _15  and  _16
REMARK    9  A    between atoms: _19  and  _21
REMARK   10  A    between atoms: _21  and  _22
REMARK   11  A    between atoms: _21  and  _24
REMARK   12  A    between atoms: _24  and  _25
REMARK   13  A    between atoms: _27  and  _29
REMARK   14  A    between atoms: _29  and  _30
REMARK   15  A    between atoms: _29  and  _32
REMARK   16  A    between atoms: _32  and  _33
REMARK   17  A    between atoms: _36  and  _38
REMARK   18  A    between atoms: _38  and  _39
REMARK   19  A    between atoms: _38  and  _41
REMARK   20  A    between atoms: _41  and  _42
REMARK   21  A    between atoms: _42  and  _43
REMARK   22  A    between atoms: _48  and  _50
REMARK   23  A    between atoms: _50  and  _51
REMARK   24  A    between atoms: _50  and  _53
REMARK   25  A    between atoms: _53  and  _54
REMARK   26  A    between atoms: _57  and  _59
REMARK   27  A    between atoms: _59  and  _60
REMARK   28  A    between atoms: _63  and  _65
REMARK   29  A    between atoms: _65  and  _66
REMARK   30  A    between atoms: _69  and  _71
REMARK   31  A    between atoms: _71  and  _72
REMARK   32  A    between atoms: _71  and  _74
REMARK   33  A    between atoms: _74  and  _75
REMARK   34  A    between atoms: _75  and  _76
REMARK   35  A    between atoms: _76  and  _77
REMARK   36  A    between atoms: _77  and  _78
REMARK   37  A    between atoms: _82  and  _84
REMARK   38  A    between atoms: _84  and  _85
REMARK   39  A    between atoms: _84  and  _87
REMARK   40  A    between atoms: _87  and  _88
REMARK   41  A    between atoms: _91  and  _93
REMARK   42  A    between atoms: _93  and  _94
REMARK   43  A    between atoms: _93  and  _96
REMARK   44  A    between atoms: _96  and  _97
REMARK   45  A    between atoms: _99  and  _101
REMARK   46  A    between atoms: _101  and  _102
REMARK   47  A    between atoms: _101  and  _104
REMARK   48  A    between atoms: _104  and  _105
REMARK   49  A    between atoms: _105  and  _106
REMARK   50  A    between atoms: _111  and  _113
REMARK   51  A    between atoms: _113  and  _114
REMARK   52  A    between atoms: _113  and  _116
REMARK   53  A    between atoms: _116  and  _117
REMARK   54  A    between atoms: _120  and  _122
REMARK   55  A    between atoms: _122  and  _123
REMARK   56  A    between atoms: _122  and  _125
REMARK   57  A    between atoms: _125  and  _126
REMARK   58  A    between atoms: _126  and  _127
REMARK   59  A    between atoms: _127  and  _128
REMARK   60  A    between atoms: _128  and  _129
REMARK   61  A    between atoms: _133  and  _135
REMARK   62  A    between atoms: _135  and  _136
REMARK   63  A    between atoms: _138  and  _140
REMARK   64  A    between atoms: _140  and  _141
REMARK   65  A    between atoms: _140  and  _143
REMARK   66  A    between atoms: _143  and  _144
REMARK   67  A    between atoms: _144  and  _145
REMARK   68  A    between atoms: _145  and  _146
REMARK   69  A    between atoms: _155  and  _157
REMARK   70  A    between atoms: _157  and  _158
REMARK   71  A    between atoms: _160  and  _162
REMARK   72  A    between atoms: _162  and  _163
REMARK   73  A    between atoms: _162  and  _165
REMARK   74  A    between atoms: _165  and  _166
REMARK   75  A    between atoms: _166  and  _167
REMARK   76  A    between atoms: _167  and  _168
REMARK   77  A    between atoms: _177  and  _179
REMARK   78  A    between atoms: _179  and  _180
REMARK   79  A    between atoms: _179  and  _182
REMARK   80  A    between atoms: _182  and  _183
REMARK   81  A    between atoms: _189  and  _191
REMARK   82  A    between atoms: _191  and  _192
REMARK   83  A    between atoms: _191  and  _194
REMARK   84  A    between atoms: _194  and  _195
REMARK   85  A    between atoms: _200  and  _202
REMARK   86  A    between atoms: _202  and  _203
REMARK   87  A    between atoms: _202  and  _205
REMARK   88  A    between atoms: _205  and  _206
REMARK   89  A    between atoms: _206  and  _207
REMARK   90  A    between atoms: _207  and  _208
REMARK   91  A    between atoms: _217  and  _219
REMARK   92  A    between atoms: _219  and  _220
REMARK   93  A    between atoms: _219  and  _222
REMARK   94  A    between atoms: _222  and  _223
REMARK   95  A    between atoms: _228  and  _230
REMARK   96  A    between atoms: _230  and  _231
REMARK   97  A    between atoms: _230  and  _233
REMARK   98  A    between atoms: _233  and  _234
REMARK   99  A    between atoms: _244  and  _246
REMARK  100  A    between atoms: _246  and  _247
REMARK  101  A    between atoms: _246  and  _249
REMARK  102  A    between atoms: _249  and  _250
REMARK  103  A    between atoms: _252  and  _254
REMARK  104  A    between atoms: _254  and  _255
REMARK  105  A    between atoms: _254  and  _257
REMARK  106  A    between atoms: _257  and  _258
REMARK  107  A    between atoms: _260  and  _262
REMARK  108  A    between atoms: _262  and  _263
REMARK  109  A    between atoms: _262  and  _265
REMARK  110  A    between atoms: _265  and  _266
REMARK  111  A    between atoms: _268  and  _270
REMARK  112  A    between atoms: _270  and  _271
REMARK  113  A    between atoms: _273  and  _275
REMARK  114  A    between atoms: _275  and  _276
REMARK  115  A    between atoms: _275  and  _278
REMARK  116  A    between atoms: _278  and  _279
REMARK  117  A    between atoms: _282  and  _284
REMARK  118  A    between atoms: _284  and  _285
REMARK  119  A    between atoms: _284  and  _287
REMARK  120  A    between atoms: _287  and  _288
REMARK  121  A    between atoms: _298  and  _300
REMARK  122  A    between atoms: _300  and  _301
REMARK  123  A    between atoms: _300  and  _303
REMARK  124  A    between atoms: _303  and  _304
REMARK  125  A    between atoms: _304  and  _305
REMARK  126  A    between atoms: _307  and  _309
REMARK  127  A    between atoms: _309  and  _310
REMARK  128  A    between atoms: _309  and  _312
REMARK  129  A    between atoms: _312  and  _313
REMARK  130  A    between atoms: _315  and  _317
REMARK  131  A    between atoms: _317  and  _318
REMARK  132  A    between atoms: _317  and  _320
REMARK  133  A    between atoms: _323  and  _325
REMARK  134  A    between atoms: _325  and  _326
REMARK  135  A    between atoms: _325  and  _328
REMARK  136  A    between atoms: _328  and  _329
REMARK  137  A    between atoms: _329  and  _330
REMARK  138  A    between atoms: _330  and  _331
REMARK  139  A    between atoms: _331  and  _332
REMARK  140  A    between atoms: _336  and  _338
REMARK  141  A    between atoms: _338  and  _339
REMARK  142  A    between atoms: _338  and  _341
REMARK  143  A    between atoms: _341  and  _342
REMARK  144  A    between atoms: _347  and  _349
REMARK  145  A    between atoms: _349  and  _350
REMARK  146  A    between atoms: _349  and  _352
REMARK  147  A    between atoms: _352  and  _353
REMARK  148  A    between atoms: _356  and  _358
REMARK  149  A    between atoms: _358  and  _359
REMARK  150  A    between atoms: _358  and  _361
REMARK  151  A    between atoms: _361  and  _362
REMARK  152  A    between atoms: _365  and  _367
REMARK  153  A    between atoms: _367  and  _368
REMARK  154  A    between atoms: _367  and  _370
REMARK  155  A    between atoms: _370  and  _371
REMARK  156  A    between atoms: _376  and  _377
REMARK  157  A    between atoms: _379  and  _381
REMARK  158  A    between atoms: _381  and  _382
REMARK  159  A    between atoms: _384  and  _386
REMARK  160  A    between atoms: _386  and  _387
REMARK  161  A    between atoms: _386  and  _389
REMARK  162  A    between atoms: _389  and  _390
REMARK  163  A    between atoms: _390  and  _391
REMARK  164  A    between atoms: _391  and  _392
REMARK  165  A    between atoms: _392  and  _393
REMARK  166  A    between atoms: _397  and  _399
REMARK  167  A    between atoms: _399  and  _400
REMARK  168  A    between atoms: _399  and  _402
REMARK  169  A    between atoms: _405  and  _407
REMARK  170  A    between atoms: _407  and  _408
REMARK  171  A    between atoms: _407  and  _410
REMARK  172  A    between atoms: _412  and  _414
REMARK  173  A    between atoms: _414  and  _415
REMARK  174  A    between atoms: _417  and  _419
REMARK  175  A    between atoms: _419  and  _420
REMARK  176  A    between atoms: _419  and  _422
REMARK  177  A    between atoms: _422  and  _423
REMARK  178  A    between atoms: _429  and  _431
REMARK  179  A    between atoms: _431  and  _432
REMARK  180  A    between atoms: _431  and  _434
REMARK  181  A    between atoms: _434  and  _435
REMARK  182  A    between atoms: _438  and  _440
REMARK  183  A    between atoms: _440  and  _441
REMARK  184  A    between atoms: _440  and  _443
REMARK  185  A    between atoms: _443  and  _444
REMARK  186  A    between atoms: _447  and  _449
REMARK  187  A    between atoms: _449  and  _450
REMARK  188  A    between atoms: _449  and  _452
REMARK  189  A    between atoms: _452  and  _453
REMARK  190  A    between atoms: _453  and  _454
REMARK  191  A    between atoms: _457  and  _459
REMARK  192  A    between atoms: _459  and  _460
REMARK  193  A    between atoms: _459  and  _462
REMARK  194  A    between atoms: _462  and  _463
REMARK  195  A    between atoms: _466  and  _468
REMARK  196  A    between atoms: _468  and  _469
REMARK  197  A    between atoms: _468  and  _471
REMARK  198  A    between atoms: _473  and  _475
REMARK  199  A    between atoms: _475  and  _476
REMARK  200  A    between atoms: _478  and  _480
REMARK  201  A    between atoms: _480  and  _481
REMARK  202  A    between atoms: _480  and  _483
REMARK  203  A    between atoms: _483  and  _484
REMARK  204  A    between atoms: _487  and  _489
REMARK  205  A    between atoms: _489  and  _490
REMARK  206  A    between atoms: _492  and  _494
REMARK  207  A    between atoms: _494  and  _495
REMARK  208  A    between atoms: _494  and  _497
REMARK  209  A    between atoms: _497  and  _498
REMARK  210  A    between atoms: _501  and  _503
REMARK  211  A    between atoms: _503  and  _504
REMARK  212  A    between atoms: _503  and  _506
REMARK  213  A    between atoms: _506  and  _507
REMARK  214  A    between atoms: _512  and  _514
REMARK  215  A    between atoms: _514  and  _515
REMARK  216  A    between atoms: _514  and  _517
REMARK  217  A    between atoms: _517  and  _518
REMARK  218  A    between atoms: _521  and  _523
REMARK  219  A    between atoms: _523  and  _524
REMARK  220  A    between atoms: _523  and  _526
REMARK  221  A    between atoms: _526  and  _527
REMARK  222  A    between atoms: _527  and  _528
REMARK  223  A    between atoms: _533  and  _535
REMARK  224  A    between atoms: _535  and  _536
REMARK  225  A    between atoms: _535  and  _538
REMARK  226  A    between atoms: _538  and  _539
REMARK  227  A    between atoms: _545  and  _547
REMARK  228  A    between atoms: _547  and  _548
REMARK  229  A    between atoms: _547  and  _550
REMARK  230  A    between atoms: _550  and  _551
REMARK  231  A    between atoms: _554  and  _556
REMARK  232  A    between atoms: _556  and  _557
REMARK  233  A    between atoms: _556  and  _559
REMARK  234  A    between atoms: _559  and  _560
REMARK  235  A    between atoms: _562  and  _564
REMARK  236  A    between atoms: _564  and  _565
REMARK  237  A    between atoms: _564  and  _567
REMARK  238  A    between atoms: _567  and  _568
REMARK  239  A    between atoms: _571  and  _573
REMARK  240  A    between atoms: _573  and  _574
REMARK  241  A    between atoms: _573  and  _576
REMARK  242  A    between atoms: _576  and  _577
REMARK  243  A    between atoms: _577  and  _578
REMARK  244  A    between atoms: _578  and  _579
REMARK  245  A    between atoms: _588  and  _590
REMARK  246  A    between atoms: _590  and  _591
REMARK  247  A    between atoms: _590  and  _593
REMARK  248  A    between atoms: _593  and  _594
REMARK  249  A    between atoms: _594  and  _595
REMARK  250  A    between atoms: _595  and  _596
REMARK  251  A    between atoms: _605  and  _607
REMARK  252  A    between atoms: _607  and  _608
REMARK  253  A    between atoms: _611  and  _613
REMARK  254  A    between atoms: _613  and  _614
REMARK  255  A    between atoms: _613  and  _616
REMARK  256  A    between atoms: _616  and  _617
REMARK  257  A    between atoms: _620  and  _622
REMARK  258  A    between atoms: _622  and  _623
REMARK  259  A    between atoms: _622  and  _625
REMARK  260  A    between atoms: _625  and  _626
REMARK  261  A    between atoms: _628  and  _630
REMARK  262  A    between atoms: _630  and  _631
REMARK  263  A    between atoms: _630  and  _633
REMARK  264  A    between atoms: _633  and  _634
REMARK  265  A    between atoms: _637  and  _639
REMARK  266  A    between atoms: _639  and  _640
REMARK  267  A    between atoms: _639  and  _642
REMARK  268  A    between atoms: _642  and  _643
REMARK  269  A    between atoms: _646  and  _648
REMARK  270  A    between atoms: _648  and  _649
REMARK  271  A    between atoms: _648  and  _651
REMARK  272  A    between atoms: _651  and  _652
REMARK  273  A    between atoms: _655  and  _657
REMARK  274  A    between atoms: _657  and  _658
REMARK  275  A    between atoms: _657  and  _660
REMARK  276  A    between atoms: _660  and  _661
REMARK                            x       y       z     vdW  Elec       q    Type
REMARK                         _______ _______ _______ _____ _____    ______ ____
ROOT
ATOM      1  O   HOH     1      55.326   9.846  22.899  0.00  0.00    +0.000 OA
ENDROOT
TORSDOF 0
