REMARK  Name = ../refined-set-2016/1xap/1xap_pocket.pdb
REMARK  261 active torsions:
REMARK  status: ('A' for Active; 'I' for Inactive)
REMARK    1  A    between atoms: _1  and  _3
REMARK    2  A    between atoms: _3  and  _4
REMARK    3  A    between atoms: _3  and  _6
REMARK    4  A    between atoms: _6  and  _7
REMARK    5  A    between atoms: _10  and  _12
REMARK    6  A    between atoms: _12  and  _13
REMARK    7  A    between atoms: _12  and  _15
REMARK    8  A    between atoms: _15  and  _16
REMARK    9  A    between atoms: _23  and  _24
REMARK   10  A    between atoms: _29  and  _31
REMARK   11  A    between atoms: _31  and  _32
REMARK   12  A    between atoms: _31  and  _34
REMARK   13  A    between atoms: _34  and  _35
REMARK   14  A    between atoms: _38  and  _40
REMARK   15  A    between atoms: _40  and  _41
REMARK   16  A    between atoms: _40  and  _43
REMARK   17  A    between atoms: _43  and  _44
REMARK   18  A    between atoms: _54  and  _56
REMARK   19  A    between atoms: _56  and  _57
REMARK   20  A    between atoms: _56  and  _59
REMARK   21  A    between atoms: _59  and  _60
REMARK   22  A    between atoms: _60  and  _61
REMARK   23  A    between atoms: _61  and  _62
REMARK   24  A    between atoms: _62  and  _63
REMARK   25  A    between atoms: _67  and  _69
REMARK   26  A    between atoms: _69  and  _70
REMARK   27  A    between atoms: _69  and  _72
REMARK   28  A    between atoms: _72  and  _73
REMARK   29  A    between atoms: _79  and  _81
REMARK   30  A    between atoms: _81  and  _82
REMARK   31  A    between atoms: _81  and  _84
REMARK   32  A    between atoms: _84  and  _85
REMARK   33  A    between atoms: _87  and  _89
REMARK   34  A    between atoms: _89  and  _90
REMARK   35  A    between atoms: _89  and  _92
REMARK   36  A    between atoms: _92  and  _93
REMARK   37  A    between atoms: _93  and  _94
REMARK   38  A    between atoms: _97  and  _99
REMARK   39  A    between atoms: _99  and  _100
REMARK   40  A    between atoms: _99  and  _102
REMARK   41  A    between atoms: _102  and  _103
REMARK   42  A    between atoms: _106  and  _108
REMARK   43  A    between atoms: _108  and  _109
REMARK   44  A    between atoms: _112  and  _114
REMARK   45  A    between atoms: _114  and  _115
REMARK   46  A    between atoms: _114  and  _117
REMARK   47  A    between atoms: _117  and  _118
REMARK   48  A    between atoms: _121  and  _123
REMARK   49  A    between atoms: _123  and  _124
REMARK   50  A    between atoms: _123  and  _126
REMARK   51  A    between atoms: _126  and  _127
REMARK   52  A    between atoms: _127  and  _128
REMARK   53  A    between atoms: _128  and  _129
REMARK   54  A    between atoms: _129  and  _130
REMARK   55  A    between atoms: _134  and  _136
REMARK   56  A    between atoms: _136  and  _137
REMARK   57  A    between atoms: _136  and  _139
REMARK   58  A    between atoms: _141  and  _143
REMARK   59  A    between atoms: _143  and  _144
REMARK   60  A    between atoms: _143  and  _146
REMARK   61  A    between atoms: _146  and  _147
REMARK   62  A    between atoms: _150  and  _152
REMARK   63  A    between atoms: _152  and  _153
REMARK   64  A    between atoms: _152  and  _155
REMARK   65  A    between atoms: _155  and  _156
REMARK   66  A    between atoms: _156  and  _157
REMARK   67  A    between atoms: _157  and  _158
REMARK   68  A    between atoms: _158  and  _159
REMARK   69  A    between atoms: _163  and  _165
REMARK   70  A    between atoms: _165  and  _166
REMARK   71  A    between atoms: _165  and  _168
REMARK   72  A    between atoms: _168  and  _169
REMARK   73  A    between atoms: _172  and  _174
REMARK   74  A    between atoms: _174  and  _175
REMARK   75  A    between atoms: _174  and  _177
REMARK   76  A    between atoms: _179  and  _181
REMARK   77  A    between atoms: _181  and  _182
REMARK   78  A    between atoms: _181  and  _184
REMARK   79  A    between atoms: _184  and  _185
REMARK   80  A    between atoms: _188  and  _190
REMARK   81  A    between atoms: _190  and  _191
REMARK   82  A    between atoms: _190  and  _193
REMARK   83  A    between atoms: _193  and  _194
REMARK   84  A    between atoms: _197  and  _199
REMARK   85  A    between atoms: _199  and  _200
REMARK   86  A    between atoms: _199  and  _202
REMARK   87  A    between atoms: _202  and  _203
REMARK   88  A    between atoms: _206  and  _208
REMARK   89  A    between atoms: _208  and  _209
REMARK   90  A    between atoms: _208  and  _211
REMARK   91  A    between atoms: _211  and  _212
REMARK   92  A    between atoms: _215  and  _217
REMARK   93  A    between atoms: _217  and  _218
REMARK   94  A    between atoms: _217  and  _220
REMARK   95  A    between atoms: _220  and  _221
REMARK   96  A    between atoms: _224  and  _226
REMARK   97  A    between atoms: _226  and  _227
REMARK   98  A    between atoms: _226  and  _229
REMARK   99  A    between atoms: _229  and  _230
REMARK  100  A    between atoms: _233  and  _235
REMARK  101  A    between atoms: _235  and  _236
REMARK  102  A    between atoms: _235  and  _238
REMARK  103  A    between atoms: _238  and  _239
REMARK  104  A    between atoms: _239  and  _240
REMARK  105  A    between atoms: _240  and  _241
REMARK  106  A    between atoms: _250  and  _252
REMARK  107  A    between atoms: _252  and  _253
REMARK  108  A    between atoms: _252  and  _255
REMARK  109  A    between atoms: _255  and  _256
REMARK  110  A    between atoms: _259  and  _261
REMARK  111  A    between atoms: _261  and  _262
REMARK  112  A    between atoms: _261  and  _264
REMARK  113  A    between atoms: _266  and  _268
REMARK  114  A    between atoms: _268  and  _269
REMARK  115  A    between atoms: _268  and  _271
REMARK  116  A    between atoms: _271  and  _272
REMARK  117  A    between atoms: _275  and  _277
REMARK  118  A    between atoms: _277  and  _278
REMARK  119  A    between atoms: _277  and  _280
REMARK  120  A    between atoms: _280  and  _281
REMARK  121  A    between atoms: _281  and  _282
REMARK  122  A    between atoms: _282  and  _283
REMARK  123  A    between atoms: _292  and  _294
REMARK  124  A    between atoms: _294  and  _295
REMARK  125  A    between atoms: _294  and  _297
REMARK  126  A    between atoms: _297  and  _298
REMARK  127  A    between atoms: _298  and  _299
REMARK  128  A    between atoms: _301  and  _303
REMARK  129  A    between atoms: _303  and  _304
REMARK  130  A    between atoms: _303  and  _306
REMARK  131  A    between atoms: _306  and  _307
REMARK  132  A    between atoms: _310  and  _312
REMARK  133  A    between atoms: _312  and  _313
REMARK  134  A    between atoms: _312  and  _315
REMARK  135  A    between atoms: _315  and  _316
REMARK  136  A    between atoms: _322  and  _324
REMARK  137  A    between atoms: _324  and  _325
REMARK  138  A    between atoms: _324  and  _327
REMARK  139  A    between atoms: _327  and  _328
REMARK  140  A    between atoms: _330  and  _332
REMARK  141  A    between atoms: _332  and  _333
REMARK  142  A    between atoms: _332  and  _335
REMARK  143  A    between atoms: _335  and  _336
REMARK  144  A    between atoms: _339  and  _341
REMARK  145  A    between atoms: _341  and  _342
REMARK  146  A    between atoms: _344  and  _346
REMARK  147  A    between atoms: _346  and  _347
REMARK  148  A    between atoms: _346  and  _349
REMARK  149  A    between atoms: _349  and  _350
REMARK  150  A    between atoms: _353  and  _355
REMARK  151  A    between atoms: _355  and  _356
REMARK  152  A    between atoms: _355  and  _358
REMARK  153  A    between atoms: _358  and  _359
REMARK  154  A    between atoms: _359  and  _360
REMARK  155  A    between atoms: _362  and  _364
REMARK  156  A    between atoms: _364  and  _365
REMARK  157  A    between atoms: _364  and  _367
REMARK  158  A    between atoms: _367  and  _368
REMARK  159  A    between atoms: _373  and  _375
REMARK  160  A    between atoms: _375  and  _376
REMARK  161  A    between atoms: _379  and  _381
REMARK  162  A    between atoms: _381  and  _382
REMARK  163  A    between atoms: _384  and  _386
REMARK  164  A    between atoms: _386  and  _387
REMARK  165  A    between atoms: _386  and  _389
REMARK  166  A    between atoms: _389  and  _390
REMARK  167  A    between atoms: _396  and  _398
REMARK  168  A    between atoms: _398  and  _399
REMARK  169  A    between atoms: _401  and  _403
REMARK  170  A    between atoms: _403  and  _404
REMARK  171  A    between atoms: _403  and  _406
REMARK  172  A    between atoms: _406  and  _407
REMARK  173  A    between atoms: _410  and  _412
REMARK  174  A    between atoms: _412  and  _413
REMARK  175  A    between atoms: _412  and  _415
REMARK  176  A    between atoms: _415  and  _416
REMARK  177  A    between atoms: _419  and  _421
REMARK  178  A    between atoms: _421  and  _422
REMARK  179  A    between atoms: _421  and  _424
REMARK  180  A    between atoms: _424  and  _425
REMARK  181  A    between atoms: _428  and  _430
REMARK  182  A    between atoms: _430  and  _431
REMARK  183  A    between atoms: _430  and  _433
REMARK  184  A    between atoms: _436  and  _438
REMARK  185  A    between atoms: _438  and  _439
REMARK  186  A    between atoms: _438  and  _441
REMARK  187  A    between atoms: _441  and  _442
REMARK  188  A    between atoms: _445  and  _447
REMARK  189  A    between atoms: _447  and  _448
REMARK  190  A    between atoms: _447  and  _450
REMARK  191  A    between atoms: _450  and  _451
REMARK  192  A    between atoms: _453  and  _455
REMARK  193  A    between atoms: _455  and  _456
REMARK  194  A    between atoms: _459  and  _461
REMARK  195  A    between atoms: _461  and  _462
REMARK  196  A    between atoms: _461  and  _464
REMARK  197  A    between atoms: _464  and  _465
REMARK  198  A    between atoms: _465  and  _466
REMARK  199  A    between atoms: _466  and  _467
REMARK  200  A    between atoms: _467  and  _468
REMARK  201  A    between atoms: _472  and  _474
REMARK  202  A    between atoms: _474  and  _475
REMARK  203  A    between atoms: _477  and  _479
REMARK  204  A    between atoms: _479  and  _480
REMARK  205  A    between atoms: _483  and  _485
REMARK  206  A    between atoms: _485  and  _486
REMARK  207  A    between atoms: _485  and  _488
REMARK  208  A    between atoms: _488  and  _489
REMARK  209  A    between atoms: _489  and  _490
REMARK  210  A    between atoms: _493  and  _495
REMARK  211  A    between atoms: _495  and  _496
REMARK  212  A    between atoms: _495  and  _498
REMARK  213  A    between atoms: _498  and  _499
REMARK  214  A    between atoms: _499  and  _500
REMARK  215  A    between atoms: _500  and  _501
REMARK  216  A    between atoms: _510  and  _512
REMARK  217  A    between atoms: _512  and  _513
REMARK  218  A    between atoms: _512  and  _515
REMARK  219  A    between atoms: _518  and  _520
REMARK  220  A    between atoms: _520  and  _521
REMARK  221  A    between atoms: _520  and  _523
REMARK  222  A    between atoms: _523  and  _524
REMARK  223  A    between atoms: _527  and  _529
REMARK  224  A    between atoms: _529  and  _530
REMARK  225  A    between atoms: _529  and  _532
REMARK  226  A    between atoms: _532  and  _533
REMARK  227  A    between atoms: _536  and  _538
REMARK  228  A    between atoms: _538  and  _539
REMARK  229  A    between atoms: _538  and  _541
REMARK  230  A    between atoms: _541  and  _542
REMARK  231  A    between atoms: _545  and  _547
REMARK  232  A    between atoms: _547  and  _548
REMARK  233  A    between atoms: _547  and  _550
REMARK  234  A    between atoms: _550  and  _551
REMARK  235  A    between atoms: _551  and  _552
REMARK  236  A    between atoms: _552  and  _553
REMARK  237  A    between atoms: _553  and  _554
REMARK  238  A    between atoms: _558  and  _560
REMARK  239  A    between atoms: _560  and  _561
REMARK  240  A    between atoms: _560  and  _563
REMARK  241  A    between atoms: _563  and  _564
REMARK  242  A    between atoms: _564  and  _565
REMARK  243  A    between atoms: _568  and  _569
REMARK  244  A    between atoms: _574  and  _576
REMARK  245  A    between atoms: _576  and  _577
REMARK  246  A    between atoms: _576  and  _579
REMARK  247  A    between atoms: _579  and  _580
REMARK  248  A    between atoms: _583  and  _585
REMARK  249  A    between atoms: _585  and  _586
REMARK  250  A    between atoms: _585  and  _588
REMARK  251  A    between atoms: _588  and  _589
REMARK  252  A    between atoms: _589  and  _590
REMARK  253  A    between atoms: _595  and  _597
REMARK  254  A    between atoms: _597  and  _598
REMARK  255  A    between atoms: _597  and  _600
REMARK  256  A    between atoms: _600  and  _601
REMARK  257  A    between atoms: _601  and  _602
REMARK  258  A    between atoms: _604  and  _606
REMARK  259  A    between atoms: _606  and  _607
REMARK  260  A    between atoms: _606  and  _609
REMARK  261  A    between atoms: _609  and  _610
REMARK                            x       y       z     vdW  Elec       q    Type
REMARK                         _______ _______ _______ _____ _____    ______ ____
ROOT
ATOM      1  CA  PHE A   2      34.992  25.680 111.396  0.00  0.00    +0.153 C 
ENDROOT
BRANCH   1   2
ATOM      2  C   PHE A   2      33.470  25.804 111.242  0.00  0.00    +0.244 C 
ATOM      3  O   PHE A   2      32.708  25.118 111.923  0.00  0.00    -0.273 OA
ATOM      4  N   PRO A   3      33.010  26.681 110.331  0.00  0.00    -0.273 N 
ATOM      5  CA  PRO A   3      31.571  26.868 110.112  0.00  0.00    +0.140 C 
ATOM      6  CB  PRO A   3      31.516  27.960 109.044  0.00  0.00    +0.030 C 
ATOM      7  CG  PRO A   3      32.806  28.694 109.222  0.00  0.00    +0.024 C 
ATOM      8  CD  PRO A   3      33.790  27.591 109.476  0.00  0.00    +0.094 C 
BRANCH   5   9
ATOM      9  C   PRO A   3      30.899  25.580 109.635  0.00  0.00    +0.227 C 
ATOM     10  O   PRO A   3      31.362  24.939 108.688  0.00  0.00    -0.286 OA
ENDBRANCH   5   9
ENDBRANCH   1   2
BRANCH   1  12
ATOM     11  C   THR A   1      36.723  27.042 112.432  0.00  0.00    +0.241 C 
ATOM     12  N   PHE A   2      35.548  26.422 112.525  0.00  0.00    -0.297 N 
ATOM     13  H   PHE A   2      35.016  26.467 113.418  0.00  0.00    +0.150 HD
ATOM     14  O   THR A   1      37.387  27.060 111.398  0.00  0.00    -0.274 OA
BRANCH  11  15
ATOM     15  CA  THR A   1      37.217  27.772 113.679  0.00  0.00    +0.172 C 
BRANCH  15  16
ATOM     16  N   THR A   1      36.355  27.560 114.837  0.00  0.00    -0.236 NA
ATOM     17  H   THR A   1      36.312  26.623 115.287  0.00  0.00    +0.142 HD
ENDBRANCH  15  16
BRANCH  15  18
ATOM     18  CB  THR A   1      38.685  27.338 113.974  0.00  0.00    +0.135 C 
ATOM     19  CG2 THR A   1      39.250  28.148 115.134  0.00  0.00    +0.034 C 
BRANCH  18  20
ATOM     20  OG1 THR A   1      38.729  25.938 114.308  0.00  0.00    -0.383 OA
ATOM     21  HG1 THR A   1      38.173  25.774 115.111  0.00  0.00    +0.210 HD
ENDBRANCH  18  20
ENDBRANCH  15  18
ENDBRANCH  11  15
ENDBRANCH   1  12
BRANCH   1  22
ATOM     22  CB  PHE A   2      35.387  24.202 111.513  0.00  0.00    +0.055 C 
BRANCH  22  23
ATOM     23  CG  PHE A   2      34.883  23.343 110.386  0.00  0.00    -0.020 A 
ATOM     24  CD2 PHE A   2      33.688  22.644 110.505  0.00  0.00    -0.004 A 
ATOM     25  CE2 PHE A   2      33.211  21.872 109.452  0.00  0.00    -0.000 A 
ATOM     26  CZ  PHE A   2      33.932  21.798 108.266  0.00  0.00    -0.000 A 
ATOM     27  CE1 PHE A   2      35.120  22.488 108.138  0.00  0.00    -0.000 A 
ATOM     28  CD1 PHE A   2      35.591  23.257 109.195  0.00  0.00    -0.004 A 
ENDBRANCH  22  23
ENDBRANCH   1  22
TORSDOF 9
REMARK  Name = ../refined-set-2016/1xap/1xap_pocket.pdb
REMARK  261 active torsions:
REMARK  status: ('A' for Active; 'I' for Inactive)
REMARK    1  A    between atoms: _1  and  _3
REMARK    2  A    between atoms: _3  and  _4
REMARK    3  A    between atoms: _3  and  _6
REMARK    4  A    between atoms: _6  and  _7
REMARK    5  A    between atoms: _10  and  _12
REMARK    6  A    between atoms: _12  and  _13
REMARK    7  A    between atoms: _12  and  _15
REMARK    8  A    between atoms: _15  and  _16
REMARK    9  A    between atoms: _23  and  _24
REMARK   10  A    between atoms: _29  and  _31
REMARK   11  A    between atoms: _31  and  _32
REMARK   12  A    between atoms: _31  and  _34
REMARK   13  A    between atoms: _34  and  _35
REMARK   14  A    between atoms: _38  and  _40
REMARK   15  A    between atoms: _40  and  _41
REMARK   16  A    between atoms: _40  and  _43
REMARK   17  A    between atoms: _43  and  _44
REMARK   18  A    between atoms: _54  and  _56
REMARK   19  A    between atoms: _56  and  _57
REMARK   20  A    between atoms: _56  and  _59
REMARK   21  A    between atoms: _59  and  _60
REMARK   22  A    between atoms: _60  and  _61
REMARK   23  A    between atoms: _61  and  _62
REMARK   24  A    between atoms: _62  and  _63
REMARK   25  A    between atoms: _67  and  _69
REMARK   26  A    between atoms: _69  and  _70
REMARK   27  A    between atoms: _69  and  _72
REMARK   28  A    between atoms: _72  and  _73
REMARK   29  A    between atoms: _79  and  _81
REMARK   30  A    between atoms: _81  and  _82
REMARK   31  A    between atoms: _81  and  _84
REMARK   32  A    between atoms: _84  and  _85
REMARK   33  A    between atoms: _87  and  _89
REMARK   34  A    between atoms: _89  and  _90
REMARK   35  A    between atoms: _89  and  _92
REMARK   36  A    between atoms: _92  and  _93
REMARK   37  A    between atoms: _93  and  _94
REMARK   38  A    between atoms: _97  and  _99
REMARK   39  A    between atoms: _99  and  _100
REMARK   40  A    between atoms: _99  and  _102
REMARK   41  A    between atoms: _102  and  _103
REMARK   42  A    between atoms: _106  and  _108
REMARK   43  A    between atoms: _108  and  _109
REMARK   44  A    between atoms: _112  and  _114
REMARK   45  A    between atoms: _114  and  _115
REMARK   46  A    between atoms: _114  and  _117
REMARK   47  A    between atoms: _117  and  _118
REMARK   48  A    between atoms: _121  and  _123
REMARK   49  A    between atoms: _123  and  _124
REMARK   50  A    between atoms: _123  and  _126
REMARK   51  A    between atoms: _126  and  _127
REMARK   52  A    between atoms: _127  and  _128
REMARK   53  A    between atoms: _128  and  _129
REMARK   54  A    between atoms: _129  and  _130
REMARK   55  A    between atoms: _134  and  _136
REMARK   56  A    between atoms: _136  and  _137
REMARK   57  A    between atoms: _136  and  _139
REMARK   58  A    between atoms: _141  and  _143
REMARK   59  A    between atoms: _143  and  _144
REMARK   60  A    between atoms: _143  and  _146
REMARK   61  A    between atoms: _146  and  _147
REMARK   62  A    between atoms: _150  and  _152
REMARK   63  A    between atoms: _152  and  _153
REMARK   64  A    between atoms: _152  and  _155
REMARK   65  A    between atoms: _155  and  _156
REMARK   66  A    between atoms: _156  and  _157
REMARK   67  A    between atoms: _157  and  _158
REMARK   68  A    between atoms: _158  and  _159
REMARK   69  A    between atoms: _163  and  _165
REMARK   70  A    between atoms: _165  and  _166
REMARK   71  A    between atoms: _165  and  _168
REMARK   72  A    between atoms: _168  and  _169
REMARK   73  A    between atoms: _172  and  _174
REMARK   74  A    between atoms: _174  and  _175
REMARK   75  A    between atoms: _174  and  _177
REMARK   76  A    between atoms: _179  and  _181
REMARK   77  A    between atoms: _181  and  _182
REMARK   78  A    between atoms: _181  and  _184
REMARK   79  A    between atoms: _184  and  _185
REMARK   80  A    between atoms: _188  and  _190
REMARK   81  A    between atoms: _190  and  _191
REMARK   82  A    between atoms: _190  and  _193
REMARK   83  A    between atoms: _193  and  _194
REMARK   84  A    between atoms: _197  and  _199
REMARK   85  A    between atoms: _199  and  _200
REMARK   86  A    between atoms: _199  and  _202
REMARK   87  A    between atoms: _202  and  _203
REMARK   88  A    between atoms: _206  and  _208
REMARK   89  A    between atoms: _208  and  _209
REMARK   90  A    between atoms: _208  and  _211
REMARK   91  A    between atoms: _211  and  _212
REMARK   92  A    between atoms: _215  and  _217
REMARK   93  A    between atoms: _217  and  _218
REMARK   94  A    between atoms: _217  and  _220
REMARK   95  A    between atoms: _220  and  _221
REMARK   96  A    between atoms: _224  and  _226
REMARK   97  A    between atoms: _226  and  _227
REMARK   98  A    between atoms: _226  and  _229
REMARK   99  A    between atoms: _229  and  _230
REMARK  100  A    between atoms: _233  and  _235
REMARK  101  A    between atoms: _235  and  _236
REMARK  102  A    between atoms: _235  and  _238
REMARK  103  A    between atoms: _238  and  _239
REMARK  104  A    between atoms: _239  and  _240
REMARK  105  A    between atoms: _240  and  _241
REMARK  106  A    between atoms: _250  and  _252
REMARK  107  A    between atoms: _252  and  _253
REMARK  108  A    between atoms: _252  and  _255
REMARK  109  A    between atoms: _255  and  _256
REMARK  110  A    between atoms: _259  and  _261
REMARK  111  A    between atoms: _261  and  _262
REMARK  112  A    between atoms: _261  and  _264
REMARK  113  A    between atoms: _266  and  _268
REMARK  114  A    between atoms: _268  and  _269
REMARK  115  A    between atoms: _268  and  _271
REMARK  116  A    between atoms: _271  and  _272
REMARK  117  A    between atoms: _275  and  _277
REMARK  118  A    between atoms: _277  and  _278
REMARK  119  A    between atoms: _277  and  _280
REMARK  120  A    between atoms: _280  and  _281
REMARK  121  A    between atoms: _281  and  _282
REMARK  122  A    between atoms: _282  and  _283
REMARK  123  A    between atoms: _292  and  _294
REMARK  124  A    between atoms: _294  and  _295
REMARK  125  A    between atoms: _294  and  _297
REMARK  126  A    between atoms: _297  and  _298
REMARK  127  A    between atoms: _298  and  _299
REMARK  128  A    between atoms: _301  and  _303
REMARK  129  A    between atoms: _303  and  _304
REMARK  130  A    between atoms: _303  and  _306
REMARK  131  A    between atoms: _306  and  _307
REMARK  132  A    between atoms: _310  and  _312
REMARK  133  A    between atoms: _312  and  _313
REMARK  134  A    between atoms: _312  and  _315
REMARK  135  A    between atoms: _315  and  _316
REMARK  136  A    between atoms: _322  and  _324
REMARK  137  A    between atoms: _324  and  _325
REMARK  138  A    between atoms: _324  and  _327
REMARK  139  A    between atoms: _327  and  _328
REMARK  140  A    between atoms: _330  and  _332
REMARK  141  A    between atoms: _332  and  _333
REMARK  142  A    between atoms: _332  and  _335
REMARK  143  A    between atoms: _335  and  _336
REMARK  144  A    between atoms: _339  and  _341
REMARK  145  A    between atoms: _341  and  _342
REMARK  146  A    between atoms: _344  and  _346
REMARK  147  A    between atoms: _346  and  _347
REMARK  148  A    between atoms: _346  and  _349
REMARK  149  A    between atoms: _349  and  _350
REMARK  150  A    between atoms: _353  and  _355
REMARK  151  A    between atoms: _355  and  _356
REMARK  152  A    between atoms: _355  and  _358
REMARK  153  A    between atoms: _358  and  _359
REMARK  154  A    between atoms: _359  and  _360
REMARK  155  A    between atoms: _362  and  _364
REMARK  156  A    between atoms: _364  and  _365
REMARK  157  A    between atoms: _364  and  _367
REMARK  158  A    between atoms: _367  and  _368
REMARK  159  A    between atoms: _373  and  _375
REMARK  160  A    between atoms: _375  and  _376
REMARK  161  A    between atoms: _379  and  _381
REMARK  162  A    between atoms: _381  and  _382
REMARK  163  A    between atoms: _384  and  _386
REMARK  164  A    between atoms: _386  and  _387
REMARK  165  A    between atoms: _386  and  _389
REMARK  166  A    between atoms: _389  and  _390
REMARK  167  A    between atoms: _396  and  _398
REMARK  168  A    between atoms: _398  and  _399
REMARK  169  A    between atoms: _401  and  _403
REMARK  170  A    between atoms: _403  and  _404
REMARK  171  A    between atoms: _403  and  _406
REMARK  172  A    between atoms: _406  and  _407
REMARK  173  A    between atoms: _410  and  _412
REMARK  174  A    between atoms: _412  and  _413
REMARK  175  A    between atoms: _412  and  _415
REMARK  176  A    between atoms: _415  and  _416
REMARK  177  A    between atoms: _419  and  _421
REMARK  178  A    between atoms: _421  and  _422
REMARK  179  A    between atoms: _421  and  _424
REMARK  180  A    between atoms: _424  and  _425
REMARK  181  A    between atoms: _428  and  _430
REMARK  182  A    between atoms: _430  and  _431
REMARK  183  A    between atoms: _430  and  _433
REMARK  184  A    between atoms: _436  and  _438
REMARK  185  A    between atoms: _438  and  _439
REMARK  186  A    between atoms: _438  and  _441
REMARK  187  A    between atoms: _441  and  _442
REMARK  188  A    between atoms: _445  and  _447
REMARK  189  A    between atoms: _447  and  _448
REMARK  190  A    between atoms: _447  and  _450
REMARK  191  A    between atoms: _450  and  _451
REMARK  192  A    between atoms: _453  and  _455
REMARK  193  A    between atoms: _455  and  _456
REMARK  194  A    between atoms: _459  and  _461
REMARK  195  A    between atoms: _461  and  _462
REMARK  196  A    between atoms: _461  and  _464
REMARK  197  A    between atoms: _464  and  _465
REMARK  198  A    between atoms: _465  and  _466
REMARK  199  A    between atoms: _466  and  _467
REMARK  200  A    between atoms: _467  and  _468
REMARK  201  A    between atoms: _472  and  _474
REMARK  202  A    between atoms: _474  and  _475
REMARK  203  A    between atoms: _477  and  _479
REMARK  204  A    between atoms: _479  and  _480
REMARK  205  A    between atoms: _483  and  _485
REMARK  206  A    between atoms: _485  and  _486
REMARK  207  A    between atoms: _485  and  _488
REMARK  208  A    between atoms: _488  and  _489
REMARK  209  A    between atoms: _489  and  _490
REMARK  210  A    between atoms: _493  and  _495
REMARK  211  A    between atoms: _495  and  _496
REMARK  212  A    between atoms: _495  and  _498
REMARK  213  A    between atoms: _498  and  _499
REMARK  214  A    between atoms: _499  and  _500
REMARK  215  A    between atoms: _500  and  _501
REMARK  216  A    between atoms: _510  and  _512
REMARK  217  A    between atoms: _512  and  _513
REMARK  218  A    between atoms: _512  and  _515
REMARK  219  A    between atoms: _518  and  _520
REMARK  220  A    between atoms: _520  and  _521
REMARK  221  A    between atoms: _520  and  _523
REMARK  222  A    between atoms: _523  and  _524
REMARK  223  A    between atoms: _527  and  _529
REMARK  224  A    between atoms: _529  and  _530
REMARK  225  A    between atoms: _529  and  _532
REMARK  226  A    between atoms: _532  and  _533
REMARK  227  A    between atoms: _536  and  _538
REMARK  228  A    between atoms: _538  and  _539
REMARK  229  A    between atoms: _538  and  _541
REMARK  230  A    between atoms: _541  and  _542
REMARK  231  A    between atoms: _545  and  _547
REMARK  232  A    between atoms: _547  and  _548
REMARK  233  A    between atoms: _547  and  _550
REMARK  234  A    between atoms: _550  and  _551
REMARK  235  A    between atoms: _551  and  _552
REMARK  236  A    between atoms: _552  and  _553
REMARK  237  A    between atoms: _553  and  _554
REMARK  238  A    between atoms: _558  and  _560
REMARK  239  A    between atoms: _560  and  _561
REMARK  240  A    between atoms: _560  and  _563
REMARK  241  A    between atoms: _563  and  _564
REMARK  242  A    between atoms: _564  and  _565
REMARK  243  A    between atoms: _568  and  _569
REMARK  244  A    between atoms: _574  and  _576
REMARK  245  A    between atoms: _576  and  _577
REMARK  246  A    between atoms: _576  and  _579
REMARK  247  A    between atoms: _579  and  _580
REMARK  248  A    between atoms: _583  and  _585
REMARK  249  A    between atoms: _585  and  _586
REMARK  250  A    between atoms: _585  and  _588
REMARK  251  A    between atoms: _588  and  _589
REMARK  252  A    between atoms: _589  and  _590
REMARK  253  A    between atoms: _595  and  _597
REMARK  254  A    between atoms: _597  and  _598
REMARK  255  A    between atoms: _597  and  _600
REMARK  256  A    between atoms: _600  and  _601
REMARK  257  A    between atoms: _601  and  _602
REMARK  258  A    between atoms: _604  and  _606
REMARK  259  A    between atoms: _606  and  _607
REMARK  260  A    between atoms: _606  and  _609
REMARK  261  A    between atoms: _609  and  _610
REMARK                            x       y       z     vdW  Elec       q    Type
REMARK                         _______ _______ _______ _____ _____    ______ ____
ROOT
ATOM      1  CA  LEU A   1      26.490  28.411 105.894  0.00  0.00    +0.133 C 
ENDROOT
BRANCH   1   2
ATOM      2  N   LEU A   1      25.789  27.722 106.967  0.00  0.00    -0.239 NA
ATOM      3  H   LEU A   1      25.239  26.867 106.750  0.00  0.00    +0.142 HD
ENDBRANCH   1   2
BRANCH   1   4
ATOM      4  C   LEU A   1      25.555  28.635 104.707  0.00  0.00    +0.224 C 
ATOM      5  O   LEU A   1      24.752  27.766 104.373  0.00  0.00    -0.287 OA
ENDBRANCH   1   4
BRANCH   1   6
ATOM      6  CB  LEU A   1      27.694  27.563 105.470  0.00  0.00    +0.025 C 
BRANCH   6   7
ATOM      7  CG  LEU A   1      29.016  28.212 105.067  0.00  0.00    +0.002 C 
ATOM      8  CD2 LEU A   1      29.479  29.175 106.139  0.00  0.00    +0.000 C 
ATOM      9  CD1 LEU A   1      30.059  27.112 104.851  0.00  0.00    +0.000 C 
ENDBRANCH   6   7
ENDBRANCH   1   6
TORSDOF 4
REMARK  Name = ../refined-set-2016/1xap/1xap_pocket.pdb
REMARK  261 active torsions:
REMARK  status: ('A' for Active; 'I' for Inactive)
REMARK    1  A    between atoms: _1  and  _3
REMARK    2  A    between atoms: _3  and  _4
REMARK    3  A    between atoms: _3  and  _6
REMARK    4  A    between atoms: _6  and  _7
REMARK    5  A    between atoms: _10  and  _12
REMARK    6  A    between atoms: _12  and  _13
REMARK    7  A    between atoms: _12  and  _15
REMARK    8  A    between atoms: _15  and  _16
REMARK    9  A    between atoms: _23  and  _24
REMARK   10  A    between atoms: _29  and  _31
REMARK   11  A    between atoms: _31  and  _32
REMARK   12  A    between atoms: _31  and  _34
REMARK   13  A    between atoms: _34  and  _35
REMARK   14  A    between atoms: _38  and  _40
REMARK   15  A    between atoms: _40  and  _41
REMARK   16  A    between atoms: _40  and  _43
REMARK   17  A    between atoms: _43  and  _44
REMARK   18  A    between atoms: _54  and  _56
REMARK   19  A    between atoms: _56  and  _57
REMARK   20  A    between atoms: _56  and  _59
REMARK   21  A    between atoms: _59  and  _60
REMARK   22  A    between atoms: _60  and  _61
REMARK   23  A    between atoms: _61  and  _62
REMARK   24  A    between atoms: _62  and  _63
REMARK   25  A    between atoms: _67  and  _69
REMARK   26  A    between atoms: _69  and  _70
REMARK   27  A    between atoms: _69  and  _72
REMARK   28  A    between atoms: _72  and  _73
REMARK   29  A    between atoms: _79  and  _81
REMARK   30  A    between atoms: _81  and  _82
REMARK   31  A    between atoms: _81  and  _84
REMARK   32  A    between atoms: _84  and  _85
REMARK   33  A    between atoms: _87  and  _89
REMARK   34  A    between atoms: _89  and  _90
REMARK   35  A    between atoms: _89  and  _92
REMARK   36  A    between atoms: _92  and  _93
REMARK   37  A    between atoms: _93  and  _94
REMARK   38  A    between atoms: _97  and  _99
REMARK   39  A    between atoms: _99  and  _100
REMARK   40  A    between atoms: _99  and  _102
REMARK   41  A    between atoms: _102  and  _103
REMARK   42  A    between atoms: _106  and  _108
REMARK   43  A    between atoms: _108  and  _109
REMARK   44  A    between atoms: _112  and  _114
REMARK   45  A    between atoms: _114  and  _115
REMARK   46  A    between atoms: _114  and  _117
REMARK   47  A    between atoms: _117  and  _118
REMARK   48  A    between atoms: _121  and  _123
REMARK   49  A    between atoms: _123  and  _124
REMARK   50  A    between atoms: _123  and  _126
REMARK   51  A    between atoms: _126  and  _127
REMARK   52  A    between atoms: _127  and  _128
REMARK   53  A    between atoms: _128  and  _129
REMARK   54  A    between atoms: _129  and  _130
REMARK   55  A    between atoms: _134  and  _136
REMARK   56  A    between atoms: _136  and  _137
REMARK   57  A    between atoms: _136  and  _139
REMARK   58  A    between atoms: _141  and  _143
REMARK   59  A    between atoms: _143  and  _144
REMARK   60  A    between atoms: _143  and  _146
REMARK   61  A    between atoms: _146  and  _147
REMARK   62  A    between atoms: _150  and  _152
REMARK   63  A    between atoms: _152  and  _153
REMARK   64  A    between atoms: _152  and  _155
REMARK   65  A    between atoms: _155  and  _156
REMARK   66  A    between atoms: _156  and  _157
REMARK   67  A    between atoms: _157  and  _158
REMARK   68  A    between atoms: _158  and  _159
REMARK   69  A    between atoms: _163  and  _165
REMARK   70  A    between atoms: _165  and  _166
REMARK   71  A    between atoms: _165  and  _168
REMARK   72  A    between atoms: _168  and  _169
REMARK   73  A    between atoms: _172  and  _174
REMARK   74  A    between atoms: _174  and  _175
REMARK   75  A    between atoms: _174  and  _177
REMARK   76  A    between atoms: _179  and  _181
REMARK   77  A    between atoms: _181  and  _182
REMARK   78  A    between atoms: _181  and  _184
REMARK   79  A    between atoms: _184  and  _185
REMARK   80  A    between atoms: _188  and  _190
REMARK   81  A    between atoms: _190  and  _191
REMARK   82  A    between atoms: _190  and  _193
REMARK   83  A    between atoms: _193  and  _194
REMARK   84  A    between atoms: _197  and  _199
REMARK   85  A    between atoms: _199  and  _200
REMARK   86  A    between atoms: _199  and  _202
REMARK   87  A    between atoms: _202  and  _203
REMARK   88  A    between atoms: _206  and  _208
REMARK   89  A    between atoms: _208  and  _209
REMARK   90  A    between atoms: _208  and  _211
REMARK   91  A    between atoms: _211  and  _212
REMARK   92  A    between atoms: _215  and  _217
REMARK   93  A    between atoms: _217  and  _218
REMARK   94  A    between atoms: _217  and  _220
REMARK   95  A    between atoms: _220  and  _221
REMARK   96  A    between atoms: _224  and  _226
REMARK   97  A    between atoms: _226  and  _227
REMARK   98  A    between atoms: _226  and  _229
REMARK   99  A    between atoms: _229  and  _230
REMARK  100  A    between atoms: _233  and  _235
REMARK  101  A    between atoms: _235  and  _236
REMARK  102  A    between atoms: _235  and  _238
REMARK  103  A    between atoms: _238  and  _239
REMARK  104  A    between atoms: _239  and  _240
REMARK  105  A    between atoms: _240  and  _241
REMARK  106  A    between atoms: _250  and  _252
REMARK  107  A    between atoms: _252  and  _253
REMARK  108  A    between atoms: _252  and  _255
REMARK  109  A    between atoms: _255  and  _256
REMARK  110  A    between atoms: _259  and  _261
REMARK  111  A    between atoms: _261  and  _262
REMARK  112  A    between atoms: _261  and  _264
REMARK  113  A    between atoms: _266  and  _268
REMARK  114  A    between atoms: _268  and  _269
REMARK  115  A    between atoms: _268  and  _271
REMARK  116  A    between atoms: _271  and  _272
REMARK  117  A    between atoms: _275  and  _277
REMARK  118  A    between atoms: _277  and  _278
REMARK  119  A    between atoms: _277  and  _280
REMARK  120  A    between atoms: _280  and  _281
REMARK  121  A    between atoms: _281  and  _282
REMARK  122  A    between atoms: _282  and  _283
REMARK  123  A    between atoms: _292  and  _294
REMARK  124  A    between atoms: _294  and  _295
REMARK  125  A    between atoms: _294  and  _297
REMARK  126  A    between atoms: _297  and  _298
REMARK  127  A    between atoms: _298  and  _299
REMARK  128  A    between atoms: _301  and  _303
REMARK  129  A    between atoms: _303  and  _304
REMARK  130  A    between atoms: _303  and  _306
REMARK  131  A    between atoms: _306  and  _307
REMARK  132  A    between atoms: _310  and  _312
REMARK  133  A    between atoms: _312  and  _313
REMARK  134  A    between atoms: _312  and  _315
REMARK  135  A    between atoms: _315  and  _316
REMARK  136  A    between atoms: _322  and  _324
REMARK  137  A    between atoms: _324  and  _325
REMARK  138  A    between atoms: _324  and  _327
REMARK  139  A    between atoms: _327  and  _328
REMARK  140  A    between atoms: _330  and  _332
REMARK  141  A    between atoms: _332  and  _333
REMARK  142  A    between atoms: _332  and  _335
REMARK  143  A    between atoms: _335  and  _336
REMARK  144  A    between atoms: _339  and  _341
REMARK  145  A    between atoms: _341  and  _342
REMARK  146  A    between atoms: _344  and  _346
REMARK  147  A    between atoms: _346  and  _347
REMARK  148  A    between atoms: _346  and  _349
REMARK  149  A    between atoms: _349  and  _350
REMARK  150  A    between atoms: _353  and  _355
REMARK  151  A    between atoms: _355  and  _356
REMARK  152  A    between atoms: _355  and  _358
REMARK  153  A    between atoms: _358  and  _359
REMARK  154  A    between atoms: _359  and  _360
REMARK  155  A    between atoms: _362  and  _364
REMARK  156  A    between atoms: _364  and  _365
REMARK  157  A    between atoms: _364  and  _367
REMARK  158  A    between atoms: _367  and  _368
REMARK  159  A    between atoms: _373  and  _375
REMARK  160  A    between atoms: _375  and  _376
REMARK  161  A    between atoms: _379  and  _381
REMARK  162  A    between atoms: _381  and  _382
REMARK  163  A    between atoms: _384  and  _386
REMARK  164  A    between atoms: _386  and  _387
REMARK  165  A    between atoms: _386  and  _389
REMARK  166  A    between atoms: _389  and  _390
REMARK  167  A    between atoms: _396  and  _398
REMARK  168  A    between atoms: _398  and  _399
REMARK  169  A    between atoms: _401  and  _403
REMARK  170  A    between atoms: _403  and  _404
REMARK  171  A    between atoms: _403  and  _406
REMARK  172  A    between atoms: _406  and  _407
REMARK  173  A    between atoms: _410  and  _412
REMARK  174  A    between atoms: _412  and  _413
REMARK  175  A    between atoms: _412  and  _415
REMARK  176  A    between atoms: _415  and  _416
REMARK  177  A    between atoms: _419  and  _421
REMARK  178  A    between atoms: _421  and  _422
REMARK  179  A    between atoms: _421  and  _424
REMARK  180  A    between atoms: _424  and  _425
REMARK  181  A    between atoms: _428  and  _430
REMARK  182  A    between atoms: _430  and  _431
REMARK  183  A    between atoms: _430  and  _433
REMARK  184  A    between atoms: _436  and  _438
REMARK  185  A    between atoms: _438  and  _439
REMARK  186  A    between atoms: _438  and  _441
REMARK  187  A    between atoms: _441  and  _442
REMARK  188  A    between atoms: _445  and  _447
REMARK  189  A    between atoms: _447  and  _448
REMARK  190  A    between atoms: _447  and  _450
REMARK  191  A    between atoms: _450  and  _451
REMARK  192  A    between atoms: _453  and  _455
REMARK  193  A    between atoms: _455  and  _456
REMARK  194  A    between atoms: _459  and  _461
REMARK  195  A    between atoms: _461  and  _462
REMARK  196  A    between atoms: _461  and  _464
REMARK  197  A    between atoms: _464  and  _465
REMARK  198  A    between atoms: _465  and  _466
REMARK  199  A    between atoms: _466  and  _467
REMARK  200  A    between atoms: _467  and  _468
REMARK  201  A    between atoms: _472  and  _474
REMARK  202  A    between atoms: _474  and  _475
REMARK  203  A    between atoms: _477  and  _479
REMARK  204  A    between atoms: _479  and  _480
REMARK  205  A    between atoms: _483  and  _485
REMARK  206  A    between atoms: _485  and  _486
REMARK  207  A    between atoms: _485  and  _488
REMARK  208  A    between atoms: _488  and  _489
REMARK  209  A    between atoms: _489  and  _490
REMARK  210  A    between atoms: _493  and  _495
REMARK  211  A    between atoms: _495  and  _496
REMARK  212  A    between atoms: _495  and  _498
REMARK  213  A    between atoms: _498  and  _499
REMARK  214  A    between atoms: _499  and  _500
REMARK  215  A    between atoms: _500  and  _501
REMARK  216  A    between atoms: _510  and  _512
REMARK  217  A    between atoms: _512  and  _513
REMARK  218  A    between atoms: _512  and  _515
REMARK  219  A    between atoms: _518  and  _520
REMARK  220  A    between atoms: _520  and  _521
REMARK  221  A    between atoms: _520  and  _523
REMARK  222  A    between atoms: _523  and  _524
REMARK  223  A    between atoms: _527  and  _529
REMARK  224  A    between atoms: _529  and  _530
REMARK  225  A    between atoms: _529  and  _532
REMARK  226  A    between atoms: _532  and  _533
REMARK  227  A    between atoms: _536  and  _538
REMARK  228  A    between atoms: _538  and  _539
REMARK  229  A    between atoms: _538  and  _541
REMARK  230  A    between atoms: _541  and  _542
REMARK  231  A    between atoms: _545  and  _547
REMARK  232  A    between atoms: _547  and  _548
REMARK  233  A    between atoms: _547  and  _550
REMARK  234  A    between atoms: _550  and  _551
REMARK  235  A    between atoms: _551  and  _552
REMARK  236  A    between atoms: _552  and  _553
REMARK  237  A    between atoms: _553  and  _554
REMARK  238  A    between atoms: _558  and  _560
REMARK  239  A    between atoms: _560  and  _561
REMARK  240  A    between atoms: _560  and  _563
REMARK  241  A    between atoms: _563  and  _564
REMARK  242  A    between atoms: _564  and  _565
REMARK  243  A    between atoms: _568  and  _569
REMARK  244  A    between atoms: _574  and  _576
REMARK  245  A    between atoms: _576  and  _577
REMARK  246  A    between atoms: _576  and  _579
REMARK  247  A    between atoms: _579  and  _580
REMARK  248  A    between atoms: _583  and  _585
REMARK  249  A    between atoms: _585  and  _586
REMARK  250  A    between atoms: _585  and  _588
REMARK  251  A    between atoms: _588  and  _589
REMARK  252  A    between atoms: _589  and  _590
REMARK  253  A    between atoms: _595  and  _597
REMARK  254  A    between atoms: _597  and  _598
REMARK  255  A    between atoms: _597  and  _600
REMARK  256  A    between atoms: _600  and  _601
REMARK  257  A    between atoms: _601  and  _602
REMARK  258  A    between atoms: _604  and  _606
REMARK  259  A    between atoms: _606  and  _607
REMARK  260  A    between atoms: _606  and  _609
REMARK  261  A    between atoms: _609  and  _610
REMARK                            x       y       z     vdW  Elec       q    Type
REMARK                         _______ _______ _______ _____ _____    ______ ____
ROOT
ATOM      1  CG  TRP A   1      44.883  27.692  91.180  0.00  0.00    -0.002 A 
ATOM      2  CD2 TRP A   1      45.465  26.882  92.208  0.00  0.00    +0.013 A 
ATOM      3  CE3 TRP A   1      45.099  25.673  92.818  0.00  0.00    +0.001 A 
ATOM      4  CZ3 TRP A   1      45.915  25.155  93.817  0.00  0.00    +0.000 A 
ATOM      5  CH2 TRP A   1      47.087  25.820  94.213  0.00  0.00    +0.001 A 
ATOM      6  CZ2 TRP A   1      47.471  27.003  93.631  0.00  0.00    +0.017 A 
ATOM      7  CE2 TRP A   1      46.651  27.525  92.628  0.00  0.00    +0.056 A 
ATOM      8  NE1 TRP A   1      46.783  28.672  91.888  0.00  0.00    -0.352 N 
ATOM      9  HE1 TRP A   1      47.559  29.359  91.971  0.00  0.00    +0.166 HD
ATOM     10  CD1 TRP A   1      45.722  28.766  91.019  0.00  0.00    +0.068 A 
ENDROOT
BRANCH   1  11
ATOM     11  CB  TRP A   1      43.561  27.458  90.480  0.00  0.00    +0.053 C 
BRANCH  11  12
ATOM     12  CA  TRP A   1      42.348  27.704  91.387  0.00  0.00    +0.137 C 
BRANCH  12  13
ATOM     13  N   TRP A   1      41.134  27.864  90.598  0.00  0.00    -0.239 NA
ATOM     14  H   TRP A   1      41.193  27.895  89.560  0.00  0.00    +0.142 HD
ENDBRANCH  12  13
BRANCH  12  15
ATOM     15  C   TRP A   1      42.589  28.957  92.237  0.00  0.00    +0.224 C 
ATOM     16  O   TRP A   1      42.958  28.855  93.403  0.00  0.00    -0.287 OA
ENDBRANCH  12  15
ENDBRANCH  11  12
ENDBRANCH   1  11
TORSDOF 4
REMARK  Name = ../refined-set-2016/1xap/1xap_pocket.pdb
REMARK  261 active torsions:
REMARK  status: ('A' for Active; 'I' for Inactive)
REMARK    1  A    between atoms: _1  and  _3
REMARK    2  A    between atoms: _3  and  _4
REMARK    3  A    between atoms: _3  and  _6
REMARK    4  A    between atoms: _6  and  _7
REMARK    5  A    between atoms: _10  and  _12
REMARK    6  A    between atoms: _12  and  _13
REMARK    7  A    between atoms: _12  and  _15
REMARK    8  A    between atoms: _15  and  _16
REMARK    9  A    between atoms: _23  and  _24
REMARK   10  A    between atoms: _29  and  _31
REMARK   11  A    between atoms: _31  and  _32
REMARK   12  A    between atoms: _31  and  _34
REMARK   13  A    between atoms: _34  and  _35
REMARK   14  A    between atoms: _38  and  _40
REMARK   15  A    between atoms: _40  and  _41
REMARK   16  A    between atoms: _40  and  _43
REMARK   17  A    between atoms: _43  and  _44
REMARK   18  A    between atoms: _54  and  _56
REMARK   19  A    between atoms: _56  and  _57
REMARK   20  A    between atoms: _56  and  _59
REMARK   21  A    between atoms: _59  and  _60
REMARK   22  A    between atoms: _60  and  _61
REMARK   23  A    between atoms: _61  and  _62
REMARK   24  A    between atoms: _62  and  _63
REMARK   25  A    between atoms: _67  and  _69
REMARK   26  A    between atoms: _69  and  _70
REMARK   27  A    between atoms: _69  and  _72
REMARK   28  A    between atoms: _72  and  _73
REMARK   29  A    between atoms: _79  and  _81
REMARK   30  A    between atoms: _81  and  _82
REMARK   31  A    between atoms: _81  and  _84
REMARK   32  A    between atoms: _84  and  _85
REMARK   33  A    between atoms: _87  and  _89
REMARK   34  A    between atoms: _89  and  _90
REMARK   35  A    between atoms: _89  and  _92
REMARK   36  A    between atoms: _92  and  _93
REMARK   37  A    between atoms: _93  and  _94
REMARK   38  A    between atoms: _97  and  _99
REMARK   39  A    between atoms: _99  and  _100
REMARK   40  A    between atoms: _99  and  _102
REMARK   41  A    between atoms: _102  and  _103
REMARK   42  A    between atoms: _106  and  _108
REMARK   43  A    between atoms: _108  and  _109
REMARK   44  A    between atoms: _112  and  _114
REMARK   45  A    between atoms: _114  and  _115
REMARK   46  A    between atoms: _114  and  _117
REMARK   47  A    between atoms: _117  and  _118
REMARK   48  A    between atoms: _121  and  _123
REMARK   49  A    between atoms: _123  and  _124
REMARK   50  A    between atoms: _123  and  _126
REMARK   51  A    between atoms: _126  and  _127
REMARK   52  A    between atoms: _127  and  _128
REMARK   53  A    between atoms: _128  and  _129
REMARK   54  A    between atoms: _129  and  _130
REMARK   55  A    between atoms: _134  and  _136
REMARK   56  A    between atoms: _136  and  _137
REMARK   57  A    between atoms: _136  and  _139
REMARK   58  A    between atoms: _141  and  _143
REMARK   59  A    between atoms: _143  and  _144
REMARK   60  A    between atoms: _143  and  _146
REMARK   61  A    between atoms: _146  and  _147
REMARK   62  A    between atoms: _150  and  _152
REMARK   63  A    between atoms: _152  and  _153
REMARK   64  A    between atoms: _152  and  _155
REMARK   65  A    between atoms: _155  and  _156
REMARK   66  A    between atoms: _156  and  _157
REMARK   67  A    between atoms: _157  and  _158
REMARK   68  A    between atoms: _158  and  _159
REMARK   69  A    between atoms: _163  and  _165
REMARK   70  A    between atoms: _165  and  _166
REMARK   71  A    between atoms: _165  and  _168
REMARK   72  A    between atoms: _168  and  _169
REMARK   73  A    between atoms: _172  and  _174
REMARK   74  A    between atoms: _174  and  _175
REMARK   75  A    between atoms: _174  and  _177
REMARK   76  A    between atoms: _179  and  _181
REMARK   77  A    between atoms: _181  and  _182
REMARK   78  A    between atoms: _181  and  _184
REMARK   79  A    between atoms: _184  and  _185
REMARK   80  A    between atoms: _188  and  _190
REMARK   81  A    between atoms: _190  and  _191
REMARK   82  A    between atoms: _190  and  _193
REMARK   83  A    between atoms: _193  and  _194
REMARK   84  A    between atoms: _197  and  _199
REMARK   85  A    between atoms: _199  and  _200
REMARK   86  A    between atoms: _199  and  _202
REMARK   87  A    between atoms: _202  and  _203
REMARK   88  A    between atoms: _206  and  _208
REMARK   89  A    between atoms: _208  and  _209
REMARK   90  A    between atoms: _208  and  _211
REMARK   91  A    between atoms: _211  and  _212
REMARK   92  A    between atoms: _215  and  _217
REMARK   93  A    between atoms: _217  and  _218
REMARK   94  A    between atoms: _217  and  _220
REMARK   95  A    between atoms: _220  and  _221
REMARK   96  A    between atoms: _224  and  _226
REMARK   97  A    between atoms: _226  and  _227
REMARK   98  A    between atoms: _226  and  _229
REMARK   99  A    between atoms: _229  and  _230
REMARK  100  A    between atoms: _233  and  _235
REMARK  101  A    between atoms: _235  and  _236
REMARK  102  A    between atoms: _235  and  _238
REMARK  103  A    between atoms: _238  and  _239
REMARK  104  A    between atoms: _239  and  _240
REMARK  105  A    between atoms: _240  and  _241
REMARK  106  A    between atoms: _250  and  _252
REMARK  107  A    between atoms: _252  and  _253
REMARK  108  A    between atoms: _252  and  _255
REMARK  109  A    between atoms: _255  and  _256
REMARK  110  A    between atoms: _259  and  _261
REMARK  111  A    between atoms: _261  and  _262
REMARK  112  A    between atoms: _261  and  _264
REMARK  113  A    between atoms: _266  and  _268
REMARK  114  A    between atoms: _268  and  _269
REMARK  115  A    between atoms: _268  and  _271
REMARK  116  A    between atoms: _271  and  _272
REMARK  117  A    between atoms: _275  and  _277
REMARK  118  A    between atoms: _277  and  _278
REMARK  119  A    between atoms: _277  and  _280
REMARK  120  A    between atoms: _280  and  _281
REMARK  121  A    between atoms: _281  and  _282
REMARK  122  A    between atoms: _282  and  _283
REMARK  123  A    between atoms: _292  and  _294
REMARK  124  A    between atoms: _294  and  _295
REMARK  125  A    between atoms: _294  and  _297
REMARK  126  A    between atoms: _297  and  _298
REMARK  127  A    between atoms: _298  and  _299
REMARK  128  A    between atoms: _301  and  _303
REMARK  129  A    between atoms: _303  and  _304
REMARK  130  A    between atoms: _303  and  _306
REMARK  131  A    between atoms: _306  and  _307
REMARK  132  A    between atoms: _310  and  _312
REMARK  133  A    between atoms: _312  and  _313
REMARK  134  A    between atoms: _312  and  _315
REMARK  135  A    between atoms: _315  and  _316
REMARK  136  A    between atoms: _322  and  _324
REMARK  137  A    between atoms: _324  and  _325
REMARK  138  A    between atoms: _324  and  _327
REMARK  139  A    between atoms: _327  and  _328
REMARK  140  A    between atoms: _330  and  _332
REMARK  141  A    between atoms: _332  and  _333
REMARK  142  A    between atoms: _332  and  _335
REMARK  143  A    between atoms: _335  and  _336
REMARK  144  A    between atoms: _339  and  _341
REMARK  145  A    between atoms: _341  and  _342
REMARK  146  A    between atoms: _344  and  _346
REMARK  147  A    between atoms: _346  and  _347
REMARK  148  A    between atoms: _346  and  _349
REMARK  149  A    between atoms: _349  and  _350
REMARK  150  A    between atoms: _353  and  _355
REMARK  151  A    between atoms: _355  and  _356
REMARK  152  A    between atoms: _355  and  _358
REMARK  153  A    between atoms: _358  and  _359
REMARK  154  A    between atoms: _359  and  _360
REMARK  155  A    between atoms: _362  and  _364
REMARK  156  A    between atoms: _364  and  _365
REMARK  157  A    between atoms: _364  and  _367
REMARK  158  A    between atoms: _367  and  _368
REMARK  159  A    between atoms: _373  and  _375
REMARK  160  A    between atoms: _375  and  _376
REMARK  161  A    between atoms: _379  and  _381
REMARK  162  A    between atoms: _381  and  _382
REMARK  163  A    between atoms: _384  and  _386
REMARK  164  A    between atoms: _386  and  _387
REMARK  165  A    between atoms: _386  and  _389
REMARK  166  A    between atoms: _389  and  _390
REMARK  167  A    between atoms: _396  and  _398
REMARK  168  A    between atoms: _398  and  _399
REMARK  169  A    between atoms: _401  and  _403
REMARK  170  A    between atoms: _403  and  _404
REMARK  171  A    between atoms: _403  and  _406
REMARK  172  A    between atoms: _406  and  _407
REMARK  173  A    between atoms: _410  and  _412
REMARK  174  A    between atoms: _412  and  _413
REMARK  175  A    between atoms: _412  and  _415
REMARK  176  A    between atoms: _415  and  _416
REMARK  177  A    between atoms: _419  and  _421
REMARK  178  A    between atoms: _421  and  _422
REMARK  179  A    between atoms: _421  and  _424
REMARK  180  A    between atoms: _424  and  _425
REMARK  181  A    between atoms: _428  and  _430
REMARK  182  A    between atoms: _430  and  _431
REMARK  183  A    between atoms: _430  and  _433
REMARK  184  A    between atoms: _436  and  _438
REMARK  185  A    between atoms: _438  and  _439
REMARK  186  A    between atoms: _438  and  _441
REMARK  187  A    between atoms: _441  and  _442
REMARK  188  A    between atoms: _445  and  _447
REMARK  189  A    between atoms: _447  and  _448
REMARK  190  A    between atoms: _447  and  _450
REMARK  191  A    between atoms: _450  and  _451
REMARK  192  A    between atoms: _453  and  _455
REMARK  193  A    between atoms: _455  and  _456
REMARK  194  A    between atoms: _459  and  _461
REMARK  195  A    between atoms: _461  and  _462
REMARK  196  A    between atoms: _461  and  _464
REMARK  197  A    between atoms: _464  and  _465
REMARK  198  A    between atoms: _465  and  _466
REMARK  199  A    between atoms: _466  and  _467
REMARK  200  A    between atoms: _467  and  _468
REMARK  201  A    between atoms: _472  and  _474
REMARK  202  A    between atoms: _474  and  _475
REMARK  203  A    between atoms: _477  and  _479
REMARK  204  A    between atoms: _479  and  _480
REMARK  205  A    between atoms: _483  and  _485
REMARK  206  A    between atoms: _485  and  _486
REMARK  207  A    between atoms: _485  and  _488
REMARK  208  A    between atoms: _488  and  _489
REMARK  209  A    between atoms: _489  and  _490
REMARK  210  A    between atoms: _493  and  _495
REMARK  211  A    between atoms: _495  and  _496
REMARK  212  A    between atoms: _495  and  _498
REMARK  213  A    between atoms: _498  and  _499
REMARK  214  A    between atoms: _499  and  _500
REMARK  215  A    between atoms: _500  and  _501
REMARK  216  A    between atoms: _510  and  _512
REMARK  217  A    between atoms: _512  and  _513
REMARK  218  A    between atoms: _512  and  _515
REMARK  219  A    between atoms: _518  and  _520
REMARK  220  A    between atoms: _520  and  _521
REMARK  221  A    between atoms: _520  and  _523
REMARK  222  A    between atoms: _523  and  _524
REMARK  223  A    between atoms: _527  and  _529
REMARK  224  A    between atoms: _529  and  _530
REMARK  225  A    between atoms: _529  and  _532
REMARK  226  A    between atoms: _532  and  _533
REMARK  227  A    between atoms: _536  and  _538
REMARK  228  A    between atoms: _538  and  _539
REMARK  229  A    between atoms: _538  and  _541
REMARK  230  A    between atoms: _541  and  _542
REMARK  231  A    between atoms: _545  and  _547
REMARK  232  A    between atoms: _547  and  _548
REMARK  233  A    between atoms: _547  and  _550
REMARK  234  A    between atoms: _550  and  _551
REMARK  235  A    between atoms: _551  and  _552
REMARK  236  A    between atoms: _552  and  _553
REMARK  237  A    between atoms: _553  and  _554
REMARK  238  A    between atoms: _558  and  _560
REMARK  239  A    between atoms: _560  and  _561
REMARK  240  A    between atoms: _560  and  _563
REMARK  241  A    between atoms: _563  and  _564
REMARK  242  A    between atoms: _564  and  _565
REMARK  243  A    between atoms: _568  and  _569
REMARK  244  A    between atoms: _574  and  _576
REMARK  245  A    between atoms: _576  and  _577
REMARK  246  A    between atoms: _576  and  _579
REMARK  247  A    between atoms: _579  and  _580
REMARK  248  A    between atoms: _583  and  _585
REMARK  249  A    between atoms: _585  and  _586
REMARK  250  A    between atoms: _585  and  _588
REMARK  251  A    between atoms: _588  and  _589
REMARK  252  A    between atoms: _589  and  _590
REMARK  253  A    between atoms: _595  and  _597
REMARK  254  A    between atoms: _597  and  _598
REMARK  255  A    between atoms: _597  and  _600
REMARK  256  A    between atoms: _600  and  _601
REMARK  257  A    between atoms: _601  and  _602
REMARK  258  A    between atoms: _604  and  _606
REMARK  259  A    between atoms: _606  and  _607
REMARK  260  A    between atoms: _606  and  _609
REMARK  261  A    between atoms: _609  and  _610
REMARK                            x       y       z     vdW  Elec       q    Type
REMARK                         _______ _______ _______ _____ _____    ______ ____
ROOT
ATOM      1  CA  LEU A   5      40.239  29.725 100.673  0.00  0.00    +0.149 C 
ENDROOT
BRANCH   1   2
ATOM      2  C   LEU A   5      41.135  28.753 101.456  0.00  0.00    +0.241 C 
ATOM      3  O   LEU A   5      40.963  28.569 102.659  0.00  0.00    -0.273 OA
ATOM      4  N   ALA A   6      42.102  28.147 100.772  0.00  0.00    -0.297 N 
ATOM      5  H   ALA A   6      42.205  28.340  99.755  0.00  0.00    +0.150 HD
BRANCH   4   6
ATOM      6  CA  ALA A   6      43.022  27.215 101.421  0.00  0.00    +0.149 C 
ATOM      7  CB  ALA A   6      43.925  26.555 100.382  0.00  0.00    +0.031 C 
BRANCH   6   8
ATOM      8  C   ALA A   6      43.871  27.973 102.443  0.00  0.00    +0.241 C 
ATOM      9  O   ALA A   6      44.127  27.486 103.542  0.00  0.00    -0.273 OA
ATOM     10  N   THR A   7      44.298  29.169 102.060  0.00  0.00    -0.295 N 
ATOM     11  H   THR A   7      44.041  29.511 101.112  0.00  0.00    +0.150 HD
BRANCH  10  12
ATOM     12  CA  THR A   7      45.111  30.021 102.912  0.00  0.00    +0.176 C 
BRANCH  12  13
ATOM     13  C   THR A   7      44.347  30.419 104.167  0.00  0.00    +0.243 C 
ATOM     14  O   THR A   7      44.900  30.444 105.272  0.00  0.00    -0.273 OA
ATOM     15  N   LYS A   8      43.074  30.748 103.985  0.00  0.00    -0.297 N 
ATOM     16  H   LYS A   8      42.668  30.724 103.028  0.00  0.00    +0.150 HD
BRANCH  15  17
ATOM     17  CA  LYS A   8      42.244  31.140 105.106  0.00  0.00    +0.149 C 
BRANCH  17  18
ATOM     18  C   LYS A   8      42.020  29.961 106.035  0.00  0.00    +0.241 C 
ATOM     19  O   LYS A   8      42.026  30.124 107.254  0.00  0.00    -0.273 OA
ATOM     20  N   CYS A   9      41.832  28.769 105.472  0.00  0.00    -0.296 N 
ATOM     21  H   CYS A   9      41.863  28.668 104.437  0.00  0.00    +0.150 HD
BRANCH  20  22
ATOM     22  CA  CYS A   9      41.582  27.607 106.315  0.00  0.00    +0.160 C 
BRANCH  22  23
ATOM     23  C   CYS A   9      42.832  27.185 107.074  0.00  0.00    +0.242 C 
ATOM     24  O   CYS A   9      42.750  26.717 108.205  0.00  0.00    -0.273 OA
ATOM     25  N   ILE A  10      43.991  27.341 106.451  0.00  0.00    -0.298 N 
ATOM     26  H   ILE A  10      44.010  27.705 105.477  0.00  0.00    +0.150 HD
BRANCH  25  27
ATOM     27  CA  ILE A  10      45.236  27.005 107.123  0.00  0.00    +0.137 C 
BRANCH  27  28
ATOM     28  CB  ILE A  10      46.434  27.260 106.195  0.00  0.00    +0.026 C 
ATOM     29  CG2 ILE A  10      47.722  27.329 107.011  0.00  0.00    +0.002 C 
BRANCH  28  30
ATOM     30  CG1 ILE A  10      46.466  26.174 105.108  0.00  0.00    +0.002 C 
ATOM     31  CD1 ILE A  10      47.382  26.460 103.964  0.00  0.00    +0.000 C 
ENDBRANCH  28  30
ENDBRANCH  27  28
BRANCH  27  32
ATOM     32  C   ILE A  10      45.342  27.896 108.371  0.00  0.00    +0.227 C 
ATOM     33  O   ILE A  10      45.635  27.420 109.473  0.00  0.00    -0.286 OA
ENDBRANCH  27  32
ENDBRANCH  25  27
ENDBRANCH  22  23
BRANCH  22  34
ATOM     34  CB  CYS A   9      41.038  26.440 105.491  0.00  0.00    +0.098 C 
ATOM     35  SG  CYS A   9      40.331  25.152 106.549  0.00  0.00    -0.080 S 
ENDBRANCH  22  34
ENDBRANCH  20  22
ENDBRANCH  17  18
BRANCH  17  36
ATOM     36  CB  LYS A   8      40.895  31.678 104.609  0.00  0.00    +0.029 C 
BRANCH  36  37
ATOM     37  CG  LYS A   8      40.983  33.049 103.928  0.00  0.00    +0.000 C 
BRANCH  37  38
ATOM     38  CD  LYS A   8      39.635  33.482 103.365  0.00  0.00    -0.024 C 
BRANCH  38  39
ATOM     39  CE  LYS A   8      39.644  34.953 102.971  0.00  0.00    -0.086 C 
BRANCH  39  40
ATOM     40  NZ  LYS A   8      39.746  35.823 104.177  0.00  0.00    +0.380 N 
ATOM     41  HZ1 LYS A   8      38.932  35.647 104.800  0.00  0.00    -0.089 HD
ATOM     42  HZ2 LYS A   8      40.627  35.606 104.686  0.00  0.00    -0.089 HD
ATOM     43  HZ3 LYS A   8      39.750  36.821 103.884  0.00  0.00    -0.089 HD
ENDBRANCH  39  40
ENDBRANCH  38  39
ENDBRANCH  37  38
ENDBRANCH  36  37
ENDBRANCH  17  36
ENDBRANCH  15  17
ENDBRANCH  12  13
BRANCH  12  44
ATOM     44  CB  THR A   7      45.520  31.300 102.166  0.00  0.00    +0.137 C 
ATOM     45  CG2 THR A   7      46.148  32.300 103.124  0.00  0.00    +0.034 C 
BRANCH  44  46
ATOM     46  OG1 THR A   7      46.444  30.966 101.126  0.00  0.00    -0.382 OA
ATOM     47  HG1 THR A   7      46.709  31.789 100.644  0.00  0.00    +0.210 HD
ENDBRANCH  44  46
ENDBRANCH  12  44
ENDBRANCH  10  12
ENDBRANCH   6   8
ENDBRANCH   4   6
ENDBRANCH   1   2
BRANCH   1  50
ATOM     48  C   GLU A   4      41.976  31.166  99.742  0.00  0.00    +0.241 C 
ATOM     49  O   GLU A   4      42.370  31.484 100.865  0.00  0.00    -0.273 OA
ATOM     50  N   LEU A   5      40.958  30.330  99.548  0.00  0.00    -0.297 N 
ATOM     51  H   LEU A   5      40.666  30.101  98.576  0.00  0.00    +0.150 HD
BRANCH  48  52
ATOM     52  CA  GLU A   4      42.654  31.719  98.481  0.00  0.00    +0.149 C 
BRANCH  52  55
ATOM     53  C   SER A   3      43.767  29.624  97.928  0.00  0.00    +0.243 C 
ATOM     54  O   SER A   3      44.359  29.580  99.012  0.00  0.00    -0.273 OA
ATOM     55  N   GLU A   4      42.947  30.609  97.588  0.00  0.00    -0.297 N 
ATOM     56  H   GLU A   4      42.498  30.587  96.650  0.00  0.00    +0.150 HD
BRANCH  53  57
ATOM     57  CA  SER A   3      43.939  28.517  96.886  0.00  0.00    +0.178 C 
BRANCH  57  60
ATOM     58  C   PHE A   2      41.604  27.877  96.769  0.00  0.00    +0.241 C 
ATOM     59  O   PHE A   2      41.569  27.679  97.983  0.00  0.00    -0.273 OA
ATOM     60  N   SER A   3      42.702  28.295  96.139  0.00  0.00    -0.295 N 
ATOM     61  H   SER A   3      42.679  28.464  95.113  0.00  0.00    +0.150 HD
BRANCH  58  62
ATOM     62  CA  PHE A   2      40.357  27.643  95.920  0.00  0.00    +0.153 C 
BRANCH  62  65
ATOM     63  C   LYS A   1      39.775  29.985  95.578  0.00  0.00    +0.238 C 
ATOM     64  O   LYS A   1      39.775  30.216  96.792  0.00  0.00    -0.274 OA
ATOM     65  N   PHE A   2      40.044  28.786  95.073  0.00  0.00    -0.297 N 
ATOM     66  H   PHE A   2      40.031  28.660  94.041  0.00  0.00    +0.150 HD
BRANCH  63  67
ATOM     67  CA  LYS A   1      39.465  31.090  94.564  0.00  0.00    +0.145 C 
BRANCH  67  68
ATOM     68  N   LYS A   1      40.426  31.074  93.469  0.00  0.00    -0.238 NA
ATOM     69  H   LYS A   1      40.111  30.791  92.519  0.00  0.00    +0.142 HD
ENDBRANCH  67  68
BRANCH  67  70
ATOM     70  CB  LYS A   1      38.050  30.915  94.010  0.00  0.00    +0.026 C 
BRANCH  70  71
ATOM     71  CG  LYS A   1      36.935  31.241  94.997  0.00  0.00    -0.000 C 
BRANCH  71  72
ATOM     72  CD  LYS A   1      36.991  32.700  95.433  0.00  0.00    -0.024 C 
BRANCH  72  73
ATOM     73  CE  LYS A   1      35.736  33.118  96.195  0.00  0.00    -0.086 C 
BRANCH  73  74
ATOM     74  NZ  LYS A   1      35.549  32.391  97.487  0.00  0.00    +0.380 N 
ATOM     75  HZ1 LYS A   1      36.364  32.573  98.107  0.00  0.00    -0.089 HD
ATOM     76  HZ2 LYS A   1      34.679  32.725  97.949  0.00  0.00    -0.089 HD
ATOM     77  HZ3 LYS A   1      35.474  31.370  97.301  0.00  0.00    -0.089 HD
ENDBRANCH  73  74
ENDBRANCH  72  73
ENDBRANCH  71  72
ENDBRANCH  70  71
ENDBRANCH  67  70
ENDBRANCH  63  67
ENDBRANCH  62  65
BRANCH  62  78
ATOM     78  CB  PHE A   2      40.553  26.389  95.059  0.00  0.00    +0.055 C 
BRANCH  78  79
ATOM     79  CG  PHE A   2      41.222  25.253  95.781  0.00  0.00    -0.020 A 
ATOM     80  CD2 PHE A   2      40.636  24.678  96.904  0.00  0.00    -0.004 A 
ATOM     81  CE2 PHE A   2      41.260  23.628  97.580  0.00  0.00    -0.000 A 
ATOM     82  CZ  PHE A   2      42.480  23.145  97.129  0.00  0.00    -0.000 A 
ATOM     83  CE1 PHE A   2      43.076  23.712  96.005  0.00  0.00    -0.000 A 
ATOM     84  CD1 PHE A   2      42.443  24.761  95.338  0.00  0.00    -0.004 A 
ENDBRANCH  78  79
ENDBRANCH  62  78
ENDBRANCH  58  62
ENDBRANCH  57  60
BRANCH  57  85
ATOM     85  CB  SER A   3      45.103  28.838  95.935  0.00  0.00    +0.166 C 
BRANCH  85  86
ATOM     86  OG  SER A   3      44.816  29.937  95.094  0.00  0.00    -0.380 OA
ATOM     87  H   SER A   3      44.017  29.732  94.546  0.00  0.00    +0.211 HD
ENDBRANCH  85  86
ENDBRANCH  57  85
ENDBRANCH  53  57
ENDBRANCH  52  55
BRANCH  52  88
ATOM     88  CB  GLU A   4      41.727  32.697  97.765  0.00  0.00    +0.041 C 
BRANCH  88  89
ATOM     89  CG  GLU A   4      41.322  33.912  98.562  0.00  0.00    +0.116 C 
BRANCH  89  90
ATOM     90  CD  GLU A   4      40.220  34.699  97.867  0.00  0.00    +0.365 C 
ATOM     91  OE2 GLU A   4      39.207  35.017  98.530  0.00  0.00    -0.246 OA
ATOM     92  OE1 GLU A   4      40.372  34.996  96.657  0.00  0.00    -0.246 OA
ENDBRANCH  89  90
ENDBRANCH  88  89
ENDBRANCH  52  88
ENDBRANCH  48  52
ENDBRANCH   1  50
BRANCH   1  93
ATOM     93  CB  LEU A   5      38.988  29.001 100.165  0.00  0.00    +0.029 C 
BRANCH  93  94
ATOM     94  CG  LEU A   5      37.838  29.894  99.682  0.00  0.00    +0.002 C 
ATOM     95  CD2 LEU A   5      37.017  30.374 100.878  0.00  0.00    +0.000 C 
ATOM     96  CD1 LEU A   5      36.961  29.129  98.706  0.00  0.00    +0.000 C 
ENDBRANCH  93  94
ENDBRANCH   1  93
TORSDOF 44
REMARK  Name = ../refined-set-2016/1xap/1xap_pocket.pdb
REMARK  261 active torsions:
REMARK  status: ('A' for Active; 'I' for Inactive)
REMARK    1  A    between atoms: _1  and  _3
REMARK    2  A    between atoms: _3  and  _4
REMARK    3  A    between atoms: _3  and  _6
REMARK    4  A    between atoms: _6  and  _7
REMARK    5  A    between atoms: _10  and  _12
REMARK    6  A    between atoms: _12  and  _13
REMARK    7  A    between atoms: _12  and  _15
REMARK    8  A    between atoms: _15  and  _16
REMARK    9  A    between atoms: _23  and  _24
REMARK   10  A    between atoms: _29  and  _31
REMARK   11  A    between atoms: _31  and  _32
REMARK   12  A    between atoms: _31  and  _34
REMARK   13  A    between atoms: _34  and  _35
REMARK   14  A    between atoms: _38  and  _40
REMARK   15  A    between atoms: _40  and  _41
REMARK   16  A    between atoms: _40  and  _43
REMARK   17  A    between atoms: _43  and  _44
REMARK   18  A    between atoms: _54  and  _56
REMARK   19  A    between atoms: _56  and  _57
REMARK   20  A    between atoms: _56  and  _59
REMARK   21  A    between atoms: _59  and  _60
REMARK   22  A    between atoms: _60  and  _61
REMARK   23  A    between atoms: _61  and  _62
REMARK   24  A    between atoms: _62  and  _63
REMARK   25  A    between atoms: _67  and  _69
REMARK   26  A    between atoms: _69  and  _70
REMARK   27  A    between atoms: _69  and  _72
REMARK   28  A    between atoms: _72  and  _73
REMARK   29  A    between atoms: _79  and  _81
REMARK   30  A    between atoms: _81  and  _82
REMARK   31  A    between atoms: _81  and  _84
REMARK   32  A    between atoms: _84  and  _85
REMARK   33  A    between atoms: _87  and  _89
REMARK   34  A    between atoms: _89  and  _90
REMARK   35  A    between atoms: _89  and  _92
REMARK   36  A    between atoms: _92  and  _93
REMARK   37  A    between atoms: _93  and  _94
REMARK   38  A    between atoms: _97  and  _99
REMARK   39  A    between atoms: _99  and  _100
REMARK   40  A    between atoms: _99  and  _102
REMARK   41  A    between atoms: _102  and  _103
REMARK   42  A    between atoms: _106  and  _108
REMARK   43  A    between atoms: _108  and  _109
REMARK   44  A    between atoms: _112  and  _114
REMARK   45  A    between atoms: _114  and  _115
REMARK   46  A    between atoms: _114  and  _117
REMARK   47  A    between atoms: _117  and  _118
REMARK   48  A    between atoms: _121  and  _123
REMARK   49  A    between atoms: _123  and  _124
REMARK   50  A    between atoms: _123  and  _126
REMARK   51  A    between atoms: _126  and  _127
REMARK   52  A    between atoms: _127  and  _128
REMARK   53  A    between atoms: _128  and  _129
REMARK   54  A    between atoms: _129  and  _130
REMARK   55  A    between atoms: _134  and  _136
REMARK   56  A    between atoms: _136  and  _137
REMARK   57  A    between atoms: _136  and  _139
REMARK   58  A    between atoms: _141  and  _143
REMARK   59  A    between atoms: _143  and  _144
REMARK   60  A    between atoms: _143  and  _146
REMARK   61  A    between atoms: _146  and  _147
REMARK   62  A    between atoms: _150  and  _152
REMARK   63  A    between atoms: _152  and  _153
REMARK   64  A    between atoms: _152  and  _155
REMARK   65  A    between atoms: _155  and  _156
REMARK   66  A    between atoms: _156  and  _157
REMARK   67  A    between atoms: _157  and  _158
REMARK   68  A    between atoms: _158  and  _159
REMARK   69  A    between atoms: _163  and  _165
REMARK   70  A    between atoms: _165  and  _166
REMARK   71  A    between atoms: _165  and  _168
REMARK   72  A    between atoms: _168  and  _169
REMARK   73  A    between atoms: _172  and  _174
REMARK   74  A    between atoms: _174  and  _175
REMARK   75  A    between atoms: _174  and  _177
REMARK   76  A    between atoms: _179  and  _181
REMARK   77  A    between atoms: _181  and  _182
REMARK   78  A    between atoms: _181  and  _184
REMARK   79  A    between atoms: _184  and  _185
REMARK   80  A    between atoms: _188  and  _190
REMARK   81  A    between atoms: _190  and  _191
REMARK   82  A    between atoms: _190  and  _193
REMARK   83  A    between atoms: _193  and  _194
REMARK   84  A    between atoms: _197  and  _199
REMARK   85  A    between atoms: _199  and  _200
REMARK   86  A    between atoms: _199  and  _202
REMARK   87  A    between atoms: _202  and  _203
REMARK   88  A    between atoms: _206  and  _208
REMARK   89  A    between atoms: _208  and  _209
REMARK   90  A    between atoms: _208  and  _211
REMARK   91  A    between atoms: _211  and  _212
REMARK   92  A    between atoms: _215  and  _217
REMARK   93  A    between atoms: _217  and  _218
REMARK   94  A    between atoms: _217  and  _220
REMARK   95  A    between atoms: _220  and  _221
REMARK   96  A    between atoms: _224  and  _226
REMARK   97  A    between atoms: _226  and  _227
REMARK   98  A    between atoms: _226  and  _229
REMARK   99  A    between atoms: _229  and  _230
REMARK  100  A    between atoms: _233  and  _235
REMARK  101  A    between atoms: _235  and  _236
REMARK  102  A    between atoms: _235  and  _238
REMARK  103  A    between atoms: _238  and  _239
REMARK  104  A    between atoms: _239  and  _240
REMARK  105  A    between atoms: _240  and  _241
REMARK  106  A    between atoms: _250  and  _252
REMARK  107  A    between atoms: _252  and  _253
REMARK  108  A    between atoms: _252  and  _255
REMARK  109  A    between atoms: _255  and  _256
REMARK  110  A    between atoms: _259  and  _261
REMARK  111  A    between atoms: _261  and  _262
REMARK  112  A    between atoms: _261  and  _264
REMARK  113  A    between atoms: _266  and  _268
REMARK  114  A    between atoms: _268  and  _269
REMARK  115  A    between atoms: _268  and  _271
REMARK  116  A    between atoms: _271  and  _272
REMARK  117  A    between atoms: _275  and  _277
REMARK  118  A    between atoms: _277  and  _278
REMARK  119  A    between atoms: _277  and  _280
REMARK  120  A    between atoms: _280  and  _281
REMARK  121  A    between atoms: _281  and  _282
REMARK  122  A    between atoms: _282  and  _283
REMARK  123  A    between atoms: _292  and  _294
REMARK  124  A    between atoms: _294  and  _295
REMARK  125  A    between atoms: _294  and  _297
REMARK  126  A    between atoms: _297  and  _298
REMARK  127  A    between atoms: _298  and  _299
REMARK  128  A    between atoms: _301  and  _303
REMARK  129  A    between atoms: _303  and  _304
REMARK  130  A    between atoms: _303  and  _306
REMARK  131  A    between atoms: _306  and  _307
REMARK  132  A    between atoms: _310  and  _312
REMARK  133  A    between atoms: _312  and  _313
REMARK  134  A    between atoms: _312  and  _315
REMARK  135  A    between atoms: _315  and  _316
REMARK  136  A    between atoms: _322  and  _324
REMARK  137  A    between atoms: _324  and  _325
REMARK  138  A    between atoms: _324  and  _327
REMARK  139  A    between atoms: _327  and  _328
REMARK  140  A    between atoms: _330  and  _332
REMARK  141  A    between atoms: _332  and  _333
REMARK  142  A    between atoms: _332  and  _335
REMARK  143  A    between atoms: _335  and  _336
REMARK  144  A    between atoms: _339  and  _341
REMARK  145  A    between atoms: _341  and  _342
REMARK  146  A    between atoms: _344  and  _346
REMARK  147  A    between atoms: _346  and  _347
REMARK  148  A    between atoms: _346  and  _349
REMARK  149  A    between atoms: _349  and  _350
REMARK  150  A    between atoms: _353  and  _355
REMARK  151  A    between atoms: _355  and  _356
REMARK  152  A    between atoms: _355  and  _358
REMARK  153  A    between atoms: _358  and  _359
REMARK  154  A    between atoms: _359  and  _360
REMARK  155  A    between atoms: _362  and  _364
REMARK  156  A    between atoms: _364  and  _365
REMARK  157  A    between atoms: _364  and  _367
REMARK  158  A    between atoms: _367  and  _368
REMARK  159  A    between atoms: _373  and  _375
REMARK  160  A    between atoms: _375  and  _376
REMARK  161  A    between atoms: _379  and  _381
REMARK  162  A    between atoms: _381  and  _382
REMARK  163  A    between atoms: _384  and  _386
REMARK  164  A    between atoms: _386  and  _387
REMARK  165  A    between atoms: _386  and  _389
REMARK  166  A    between atoms: _389  and  _390
REMARK  167  A    between atoms: _396  and  _398
REMARK  168  A    between atoms: _398  and  _399
REMARK  169  A    between atoms: _401  and  _403
REMARK  170  A    between atoms: _403  and  _404
REMARK  171  A    between atoms: _403  and  _406
REMARK  172  A    between atoms: _406  and  _407
REMARK  173  A    between atoms: _410  and  _412
REMARK  174  A    between atoms: _412  and  _413
REMARK  175  A    between atoms: _412  and  _415
REMARK  176  A    between atoms: _415  and  _416
REMARK  177  A    between atoms: _419  and  _421
REMARK  178  A    between atoms: _421  and  _422
REMARK  179  A    between atoms: _421  and  _424
REMARK  180  A    between atoms: _424  and  _425
REMARK  181  A    between atoms: _428  and  _430
REMARK  182  A    between atoms: _430  and  _431
REMARK  183  A    between atoms: _430  and  _433
REMARK  184  A    between atoms: _436  and  _438
REMARK  185  A    between atoms: _438  and  _439
REMARK  186  A    between atoms: _438  and  _441
REMARK  187  A    between atoms: _441  and  _442
REMARK  188  A    between atoms: _445  and  _447
REMARK  189  A    between atoms: _447  and  _448
REMARK  190  A    between atoms: _447  and  _450
REMARK  191  A    between atoms: _450  and  _451
REMARK  192  A    between atoms: _453  and  _455
REMARK  193  A    between atoms: _455  and  _456
REMARK  194  A    between atoms: _459  and  _461
REMARK  195  A    between atoms: _461  and  _462
REMARK  196  A    between atoms: _461  and  _464
REMARK  197  A    between atoms: _464  and  _465
REMARK  198  A    between atoms: _465  and  _466
REMARK  199  A    between atoms: _466  and  _467
REMARK  200  A    between atoms: _467  and  _468
REMARK  201  A    between atoms: _472  and  _474
REMARK  202  A    between atoms: _474  and  _475
REMARK  203  A    between atoms: _477  and  _479
REMARK  204  A    between atoms: _479  and  _480
REMARK  205  A    between atoms: _483  and  _485
REMARK  206  A    between atoms: _485  and  _486
REMARK  207  A    between atoms: _485  and  _488
REMARK  208  A    between atoms: _488  and  _489
REMARK  209  A    between atoms: _489  and  _490
REMARK  210  A    between atoms: _493  and  _495
REMARK  211  A    between atoms: _495  and  _496
REMARK  212  A    between atoms: _495  and  _498
REMARK  213  A    between atoms: _498  and  _499
REMARK  214  A    between atoms: _499  and  _500
REMARK  215  A    between atoms: _500  and  _501
REMARK  216  A    between atoms: _510  and  _512
REMARK  217  A    between atoms: _512  and  _513
REMARK  218  A    between atoms: _512  and  _515
REMARK  219  A    between atoms: _518  and  _520
REMARK  220  A    between atoms: _520  and  _521
REMARK  221  A    between atoms: _520  and  _523
REMARK  222  A    between atoms: _523  and  _524
REMARK  223  A    between atoms: _527  and  _529
REMARK  224  A    between atoms: _529  and  _530
REMARK  225  A    between atoms: _529  and  _532
REMARK  226  A    between atoms: _532  and  _533
REMARK  227  A    between atoms: _536  and  _538
REMARK  228  A    between atoms: _538  and  _539
REMARK  229  A    between atoms: _538  and  _541
REMARK  230  A    between atoms: _541  and  _542
REMARK  231  A    between atoms: _545  and  _547
REMARK  232  A    between atoms: _547  and  _548
REMARK  233  A    between atoms: _547  and  _550
REMARK  234  A    between atoms: _550  and  _551
REMARK  235  A    between atoms: _551  and  _552
REMARK  236  A    between atoms: _552  and  _553
REMARK  237  A    between atoms: _553  and  _554
REMARK  238  A    between atoms: _558  and  _560
REMARK  239  A    between atoms: _560  and  _561
REMARK  240  A    between atoms: _560  and  _563
REMARK  241  A    between atoms: _563  and  _564
REMARK  242  A    between atoms: _564  and  _565
REMARK  243  A    between atoms: _568  and  _569
REMARK  244  A    between atoms: _574  and  _576
REMARK  245  A    between atoms: _576  and  _577
REMARK  246  A    between atoms: _576  and  _579
REMARK  247  A    between atoms: _579  and  _580
REMARK  248  A    between atoms: _583  and  _585
REMARK  249  A    between atoms: _585  and  _586
REMARK  250  A    between atoms: _585  and  _588
REMARK  251  A    between atoms: _588  and  _589
REMARK  252  A    between atoms: _589  and  _590
REMARK  253  A    between atoms: _595  and  _597
REMARK  254  A    between atoms: _597  and  _598
REMARK  255  A    between atoms: _597  and  _600
REMARK  256  A    between atoms: _600  and  _601
REMARK  257  A    between atoms: _601  and  _602
REMARK  258  A    between atoms: _604  and  _606
REMARK  259  A    between atoms: _606  and  _607
REMARK  260  A    between atoms: _606  and  _609
REMARK  261  A    between atoms: _609  and  _610
REMARK                            x       y       z     vdW  Elec       q    Type
REMARK                         _______ _______ _______ _____ _____    ______ ____
ROOT
ATOM      1  CA  LYS A   1      41.994  28.760 110.996  0.00  0.00    +0.145 C 
ENDROOT
BRANCH   1   2
ATOM      2  C   LYS A   1      42.471  27.481 111.691  0.00  0.00    +0.238 C 
ATOM      3  O   LYS A   1      42.155  27.241 112.860  0.00  0.00    -0.274 OA
ATOM      4  N   ILE A   2      43.233  26.656 110.981  0.00  0.00    -0.298 N 
ATOM      5  H   ILE A   2      43.474  26.884 109.995  0.00  0.00    +0.150 HD
BRANCH   4   6
ATOM      6  CA  ILE A   2      43.728  25.430 111.593  0.00  0.00    +0.137 C 
BRANCH   6   7
ATOM      7  C   ILE A   2      44.753  25.773 112.676  0.00  0.00    +0.227 C 
ATOM      8  O   ILE A   2      44.764  25.159 113.744  0.00  0.00    -0.286 OA
ENDBRANCH   6   7
BRANCH   6   9
ATOM      9  CB  ILE A   2      44.335  24.479 110.542  0.00  0.00    +0.026 C 
ATOM     10  CG2 ILE A   2      45.196  23.413 111.230  0.00  0.00    +0.002 C 
BRANCH   9  11
ATOM     11  CG1 ILE A   2      43.196  23.804 109.758  0.00  0.00    +0.002 C 
ATOM     12  CD1 ILE A   2      43.619  23.172 108.436  0.00  0.00    +0.000 C 
ENDBRANCH   9  11
ENDBRANCH   6   9
ENDBRANCH   4   6
ENDBRANCH   1   2
BRANCH   1  13
ATOM     13  N   LYS A   1      42.986  29.233 110.028  0.00  0.00    -0.238 NA
ATOM     14  H   LYS A   1      42.754  29.222 109.014  0.00  0.00    +0.142 HD
ENDBRANCH   1  13
BRANCH   1  15
ATOM     15  CB  LYS A   1      40.649  28.498 110.309  0.00  0.00    +0.026 C 
BRANCH  15  16
ATOM     16  CG  LYS A   1      39.809  29.743 110.072  0.00  0.00    -0.000 C 
BRANCH  16  17
ATOM     17  CD  LYS A   1      39.368  30.363 111.394  0.00  0.00    -0.024 C 
BRANCH  17  18
ATOM     18  CE  LYS A   1      38.600  31.654 111.170  0.00  0.00    -0.086 C 
BRANCH  18  19
ATOM     19  NZ  LYS A   1      37.347  31.409 110.410  0.00  0.00    +0.380 N 
ATOM     20  HZ1 LYS A   1      36.743  30.751 110.943  0.00  0.00    -0.089 HD
ATOM     21  HZ2 LYS A   1      36.845  32.309 110.273  0.00  0.00    -0.089 HD
ATOM     22  HZ3 LYS A   1      37.580  30.996 109.484  0.00  0.00    -0.089 HD
ENDBRANCH  18  19
ENDBRANCH  17  18
ENDBRANCH  16  17
ENDBRANCH  15  16
ENDBRANCH   1  15
TORSDOF 11
REMARK  Name = ../refined-set-2016/1xap/1xap_pocket.pdb
REMARK  261 active torsions:
REMARK  status: ('A' for Active; 'I' for Inactive)
REMARK    1  A    between atoms: _1  and  _3
REMARK    2  A    between atoms: _3  and  _4
REMARK    3  A    between atoms: _3  and  _6
REMARK    4  A    between atoms: _6  and  _7
REMARK    5  A    between atoms: _10  and  _12
REMARK    6  A    between atoms: _12  and  _13
REMARK    7  A    between atoms: _12  and  _15
REMARK    8  A    between atoms: _15  and  _16
REMARK    9  A    between atoms: _23  and  _24
REMARK   10  A    between atoms: _29  and  _31
REMARK   11  A    between atoms: _31  and  _32
REMARK   12  A    between atoms: _31  and  _34
REMARK   13  A    between atoms: _34  and  _35
REMARK   14  A    between atoms: _38  and  _40
REMARK   15  A    between atoms: _40  and  _41
REMARK   16  A    between atoms: _40  and  _43
REMARK   17  A    between atoms: _43  and  _44
REMARK   18  A    between atoms: _54  and  _56
REMARK   19  A    between atoms: _56  and  _57
REMARK   20  A    between atoms: _56  and  _59
REMARK   21  A    between atoms: _59  and  _60
REMARK   22  A    between atoms: _60  and  _61
REMARK   23  A    between atoms: _61  and  _62
REMARK   24  A    between atoms: _62  and  _63
REMARK   25  A    between atoms: _67  and  _69
REMARK   26  A    between atoms: _69  and  _70
REMARK   27  A    between atoms: _69  and  _72
REMARK   28  A    between atoms: _72  and  _73
REMARK   29  A    between atoms: _79  and  _81
REMARK   30  A    between atoms: _81  and  _82
REMARK   31  A    between atoms: _81  and  _84
REMARK   32  A    between atoms: _84  and  _85
REMARK   33  A    between atoms: _87  and  _89
REMARK   34  A    between atoms: _89  and  _90
REMARK   35  A    between atoms: _89  and  _92
REMARK   36  A    between atoms: _92  and  _93
REMARK   37  A    between atoms: _93  and  _94
REMARK   38  A    between atoms: _97  and  _99
REMARK   39  A    between atoms: _99  and  _100
REMARK   40  A    between atoms: _99  and  _102
REMARK   41  A    between atoms: _102  and  _103
REMARK   42  A    between atoms: _106  and  _108
REMARK   43  A    between atoms: _108  and  _109
REMARK   44  A    between atoms: _112  and  _114
REMARK   45  A    between atoms: _114  and  _115
REMARK   46  A    between atoms: _114  and  _117
REMARK   47  A    between atoms: _117  and  _118
REMARK   48  A    between atoms: _121  and  _123
REMARK   49  A    between atoms: _123  and  _124
REMARK   50  A    between atoms: _123  and  _126
REMARK   51  A    between atoms: _126  and  _127
REMARK   52  A    between atoms: _127  and  _128
REMARK   53  A    between atoms: _128  and  _129
REMARK   54  A    between atoms: _129  and  _130
REMARK   55  A    between atoms: _134  and  _136
REMARK   56  A    between atoms: _136  and  _137
REMARK   57  A    between atoms: _136  and  _139
REMARK   58  A    between atoms: _141  and  _143
REMARK   59  A    between atoms: _143  and  _144
REMARK   60  A    between atoms: _143  and  _146
REMARK   61  A    between atoms: _146  and  _147
REMARK   62  A    between atoms: _150  and  _152
REMARK   63  A    between atoms: _152  and  _153
REMARK   64  A    between atoms: _152  and  _155
REMARK   65  A    between atoms: _155  and  _156
REMARK   66  A    between atoms: _156  and  _157
REMARK   67  A    between atoms: _157  and  _158
REMARK   68  A    between atoms: _158  and  _159
REMARK   69  A    between atoms: _163  and  _165
REMARK   70  A    between atoms: _165  and  _166
REMARK   71  A    between atoms: _165  and  _168
REMARK   72  A    between atoms: _168  and  _169
REMARK   73  A    between atoms: _172  and  _174
REMARK   74  A    between atoms: _174  and  _175
REMARK   75  A    between atoms: _174  and  _177
REMARK   76  A    between atoms: _179  and  _181
REMARK   77  A    between atoms: _181  and  _182
REMARK   78  A    between atoms: _181  and  _184
REMARK   79  A    between atoms: _184  and  _185
REMARK   80  A    between atoms: _188  and  _190
REMARK   81  A    between atoms: _190  and  _191
REMARK   82  A    between atoms: _190  and  _193
REMARK   83  A    between atoms: _193  and  _194
REMARK   84  A    between atoms: _197  and  _199
REMARK   85  A    between atoms: _199  and  _200
REMARK   86  A    between atoms: _199  and  _202
REMARK   87  A    between atoms: _202  and  _203
REMARK   88  A    between atoms: _206  and  _208
REMARK   89  A    between atoms: _208  and  _209
REMARK   90  A    between atoms: _208  and  _211
REMARK   91  A    between atoms: _211  and  _212
REMARK   92  A    between atoms: _215  and  _217
REMARK   93  A    between atoms: _217  and  _218
REMARK   94  A    between atoms: _217  and  _220
REMARK   95  A    between atoms: _220  and  _221
REMARK   96  A    between atoms: _224  and  _226
REMARK   97  A    between atoms: _226  and  _227
REMARK   98  A    between atoms: _226  and  _229
REMARK   99  A    between atoms: _229  and  _230
REMARK  100  A    between atoms: _233  and  _235
REMARK  101  A    between atoms: _235  and  _236
REMARK  102  A    between atoms: _235  and  _238
REMARK  103  A    between atoms: _238  and  _239
REMARK  104  A    between atoms: _239  and  _240
REMARK  105  A    between atoms: _240  and  _241
REMARK  106  A    between atoms: _250  and  _252
REMARK  107  A    between atoms: _252  and  _253
REMARK  108  A    between atoms: _252  and  _255
REMARK  109  A    between atoms: _255  and  _256
REMARK  110  A    between atoms: _259  and  _261
REMARK  111  A    between atoms: _261  and  _262
REMARK  112  A    between atoms: _261  and  _264
REMARK  113  A    between atoms: _266  and  _268
REMARK  114  A    between atoms: _268  and  _269
REMARK  115  A    between atoms: _268  and  _271
REMARK  116  A    between atoms: _271  and  _272
REMARK  117  A    between atoms: _275  and  _277
REMARK  118  A    between atoms: _277  and  _278
REMARK  119  A    between atoms: _277  and  _280
REMARK  120  A    between atoms: _280  and  _281
REMARK  121  A    between atoms: _281  and  _282
REMARK  122  A    between atoms: _282  and  _283
REMARK  123  A    between atoms: _292  and  _294
REMARK  124  A    between atoms: _294  and  _295
REMARK  125  A    between atoms: _294  and  _297
REMARK  126  A    between atoms: _297  and  _298
REMARK  127  A    between atoms: _298  and  _299
REMARK  128  A    between atoms: _301  and  _303
REMARK  129  A    between atoms: _303  and  _304
REMARK  130  A    between atoms: _303  and  _306
REMARK  131  A    between atoms: _306  and  _307
REMARK  132  A    between atoms: _310  and  _312
REMARK  133  A    between atoms: _312  and  _313
REMARK  134  A    between atoms: _312  and  _315
REMARK  135  A    between atoms: _315  and  _316
REMARK  136  A    between atoms: _322  and  _324
REMARK  137  A    between atoms: _324  and  _325
REMARK  138  A    between atoms: _324  and  _327
REMARK  139  A    between atoms: _327  and  _328
REMARK  140  A    between atoms: _330  and  _332
REMARK  141  A    between atoms: _332  and  _333
REMARK  142  A    between atoms: _332  and  _335
REMARK  143  A    between atoms: _335  and  _336
REMARK  144  A    between atoms: _339  and  _341
REMARK  145  A    between atoms: _341  and  _342
REMARK  146  A    between atoms: _344  and  _346
REMARK  147  A    between atoms: _346  and  _347
REMARK  148  A    between atoms: _346  and  _349
REMARK  149  A    between atoms: _349  and  _350
REMARK  150  A    between atoms: _353  and  _355
REMARK  151  A    between atoms: _355  and  _356
REMARK  152  A    between atoms: _355  and  _358
REMARK  153  A    between atoms: _358  and  _359
REMARK  154  A    between atoms: _359  and  _360
REMARK  155  A    between atoms: _362  and  _364
REMARK  156  A    between atoms: _364  and  _365
REMARK  157  A    between atoms: _364  and  _367
REMARK  158  A    between atoms: _367  and  _368
REMARK  159  A    between atoms: _373  and  _375
REMARK  160  A    between atoms: _375  and  _376
REMARK  161  A    between atoms: _379  and  _381
REMARK  162  A    between atoms: _381  and  _382
REMARK  163  A    between atoms: _384  and  _386
REMARK  164  A    between atoms: _386  and  _387
REMARK  165  A    between atoms: _386  and  _389
REMARK  166  A    between atoms: _389  and  _390
REMARK  167  A    between atoms: _396  and  _398
REMARK  168  A    between atoms: _398  and  _399
REMARK  169  A    between atoms: _401  and  _403
REMARK  170  A    between atoms: _403  and  _404
REMARK  171  A    between atoms: _403  and  _406
REMARK  172  A    between atoms: _406  and  _407
REMARK  173  A    between atoms: _410  and  _412
REMARK  174  A    between atoms: _412  and  _413
REMARK  175  A    between atoms: _412  and  _415
REMARK  176  A    between atoms: _415  and  _416
REMARK  177  A    between atoms: _419  and  _421
REMARK  178  A    between atoms: _421  and  _422
REMARK  179  A    between atoms: _421  and  _424
REMARK  180  A    between atoms: _424  and  _425
REMARK  181  A    between atoms: _428  and  _430
REMARK  182  A    between atoms: _430  and  _431
REMARK  183  A    between atoms: _430  and  _433
REMARK  184  A    between atoms: _436  and  _438
REMARK  185  A    between atoms: _438  and  _439
REMARK  186  A    between atoms: _438  and  _441
REMARK  187  A    between atoms: _441  and  _442
REMARK  188  A    between atoms: _445  and  _447
REMARK  189  A    between atoms: _447  and  _448
REMARK  190  A    between atoms: _447  and  _450
REMARK  191  A    between atoms: _450  and  _451
REMARK  192  A    between atoms: _453  and  _455
REMARK  193  A    between atoms: _455  and  _456
REMARK  194  A    between atoms: _459  and  _461
REMARK  195  A    between atoms: _461  and  _462
REMARK  196  A    between atoms: _461  and  _464
REMARK  197  A    between atoms: _464  and  _465
REMARK  198  A    between atoms: _465  and  _466
REMARK  199  A    between atoms: _466  and  _467
REMARK  200  A    between atoms: _467  and  _468
REMARK  201  A    between atoms: _472  and  _474
REMARK  202  A    between atoms: _474  and  _475
REMARK  203  A    between atoms: _477  and  _479
REMARK  204  A    between atoms: _479  and  _480
REMARK  205  A    between atoms: _483  and  _485
REMARK  206  A    between atoms: _485  and  _486
REMARK  207  A    between atoms: _485  and  _488
REMARK  208  A    between atoms: _488  and  _489
REMARK  209  A    between atoms: _489  and  _490
REMARK  210  A    between atoms: _493  and  _495
REMARK  211  A    between atoms: _495  and  _496
REMARK  212  A    between atoms: _495  and  _498
REMARK  213  A    between atoms: _498  and  _499
REMARK  214  A    between atoms: _499  and  _500
REMARK  215  A    between atoms: _500  and  _501
REMARK  216  A    between atoms: _510  and  _512
REMARK  217  A    between atoms: _512  and  _513
REMARK  218  A    between atoms: _512  and  _515
REMARK  219  A    between atoms: _518  and  _520
REMARK  220  A    between atoms: _520  and  _521
REMARK  221  A    between atoms: _520  and  _523
REMARK  222  A    between atoms: _523  and  _524
REMARK  223  A    between atoms: _527  and  _529
REMARK  224  A    between atoms: _529  and  _530
REMARK  225  A    between atoms: _529  and  _532
REMARK  226  A    between atoms: _532  and  _533
REMARK  227  A    between atoms: _536  and  _538
REMARK  228  A    between atoms: _538  and  _539
REMARK  229  A    between atoms: _538  and  _541
REMARK  230  A    between atoms: _541  and  _542
REMARK  231  A    between atoms: _545  and  _547
REMARK  232  A    between atoms: _547  and  _548
REMARK  233  A    between atoms: _547  and  _550
REMARK  234  A    between atoms: _550  and  _551
REMARK  235  A    between atoms: _551  and  _552
REMARK  236  A    between atoms: _552  and  _553
REMARK  237  A    between atoms: _553  and  _554
REMARK  238  A    between atoms: _558  and  _560
REMARK  239  A    between atoms: _560  and  _561
REMARK  240  A    between atoms: _560  and  _563
REMARK  241  A    between atoms: _563  and  _564
REMARK  242  A    between atoms: _564  and  _565
REMARK  243  A    between atoms: _568  and  _569
REMARK  244  A    between atoms: _574  and  _576
REMARK  245  A    between atoms: _576  and  _577
REMARK  246  A    between atoms: _576  and  _579
REMARK  247  A    between atoms: _579  and  _580
REMARK  248  A    between atoms: _583  and  _585
REMARK  249  A    between atoms: _585  and  _586
REMARK  250  A    between atoms: _585  and  _588
REMARK  251  A    between atoms: _588  and  _589
REMARK  252  A    between atoms: _589  and  _590
REMARK  253  A    between atoms: _595  and  _597
REMARK  254  A    between atoms: _597  and  _598
REMARK  255  A    between atoms: _597  and  _600
REMARK  256  A    between atoms: _600  and  _601
REMARK  257  A    between atoms: _601  and  _602
REMARK  258  A    between atoms: _604  and  _606
REMARK  259  A    between atoms: _606  and  _607
REMARK  260  A    between atoms: _606  and  _609
REMARK  261  A    between atoms: _609  and  _610
REMARK                            x       y       z     vdW  Elec       q    Type
REMARK                         _______ _______ _______ _____ _____    ______ ____
ROOT
ATOM      1  C   LEU A   7      37.945  17.266 106.717  0.00  0.00    +0.241 C 
ATOM      2  N   ARG A   8      38.371  18.514 106.850  0.00  0.00    -0.297 N 
ATOM      3  H   ARG A   8      39.391  18.705 106.912  0.00  0.00    +0.150 HD
ATOM      4  O   LEU A   7      36.747  16.980 106.632  0.00  0.00    -0.273 OA
ENDROOT
BRANCH   2   5
ATOM      5  CA  ARG A   8      37.425  19.623 106.911  0.00  0.00    +0.149 C 
BRANCH   5   6
ATOM      6  C   ARG A   8      36.532  19.748 105.677  0.00  0.00    +0.241 C 
ATOM      7  O   ARG A   8      35.308  19.802 105.798  0.00  0.00    -0.273 OA
ATOM      8  N   ILE A   9      37.132  19.781 104.491  0.00  0.00    -0.297 N 
ATOM      9  H   ILE A   9      38.168  19.708 104.429  0.00  0.00    +0.150 HD
BRANCH   8  10
ATOM     10  CA  ILE A   9      36.335  19.920 103.278  0.00  0.00    +0.149 C 
BRANCH  10  11
ATOM     11  C   ILE A   9      35.440  18.689 103.083  0.00  0.00    +0.241 C 
ATOM     12  N   CYS A  10      35.937  17.507 103.438  0.00  0.00    -0.296 N 
ATOM     13  H   CYS A  10      36.903  17.449 103.819  0.00  0.00    +0.150 HD
ATOM     14  O   ILE A   9      34.303  18.813 102.639  0.00  0.00    -0.273 OA
BRANCH  12  15
ATOM     15  CA  CYS A  10      35.142  16.291 103.299  0.00  0.00    +0.160 C 
BRANCH  15  16
ATOM     16  C   CYS A  10      33.955  16.262 104.261  0.00  0.00    +0.242 C 
ATOM     17  N   THR A  11      34.008  17.068 105.317  0.00  0.00    -0.295 N 
ATOM     18  H   THR A  11      34.841  17.670 105.475  0.00  0.00    +0.150 HD
ATOM     19  O   CYS A  10      32.995  15.516 104.053  0.00  0.00    -0.273 OA
BRANCH  17  20
ATOM     20  CA  THR A  11      32.887  17.101 106.254  0.00  0.00    +0.176 C 
BRANCH  20  21
ATOM     21  C   THR A  11      31.737  17.993 105.743  0.00  0.00    +0.243 C 
ATOM     22  O   THR A  11      30.683  18.069 106.369  0.00  0.00    -0.273 OA
ATOM     23  N   ARG A  12      31.944  18.666 104.610  0.00  0.00    -0.298 N 
ATOM     24  H   ARG A  12      32.865  18.586 104.134  0.00  0.00    +0.150 HD
BRANCH  23  25
ATOM     25  CA  ARG A  12      30.903  19.518 104.017  0.00  0.00    +0.137 C 
BRANCH  25  26
ATOM     26  C   ARG A  12      30.456  18.934 102.678  0.00  0.00    +0.227 C 
ATOM     27  O   ARG A  12      30.175  19.660 101.723  0.00  0.00    -0.286 OA
ENDBRANCH  25  26
BRANCH  25  28
ATOM     28  CB  ARG A  12      31.411  20.946 103.789  0.00  0.00    +0.031 C 
BRANCH  28  29
ATOM     29  CG  ARG A  12      31.829  21.669 105.048  0.00  0.00    +0.045 C 
BRANCH  29  30
ATOM     30  CD  ARG A  12      31.207  23.048 105.120  0.00  0.00    +0.174 C 
BRANCH  30  31
ATOM     31  NE  ARG A  12      31.869  23.858 106.135  0.00  0.00    -0.265 N 
ATOM     32  HE  ARG A  12      31.350  24.059 107.013  0.00  0.00    +0.259 HD
ATOM     33  CZ  ARG A  12      33.094  24.355 106.008  0.00  0.00    +0.342 C 
ATOM     34  NH2 ARG A  12      33.626  25.071 106.991  0.00  0.00    -0.292 N 
ATOM     35 HH21 ARG A  12      33.083  25.243 107.861  0.00  0.00    +0.255 HD
ATOM     36 HH22 ARG A  12      34.585  25.460 106.891  0.00  0.00    +0.255 HD
ATOM     37  NH1 ARG A  12      33.795  24.127 104.900  0.00  0.00    -0.292 N 
ATOM     38 HH11 ARG A  12      34.754  24.517 104.802  0.00  0.00    +0.255 HD
ATOM     39 HH12 ARG A  12      33.384  23.559 104.132  0.00  0.00    +0.255 HD
ENDBRANCH  30  31
ENDBRANCH  29  30
ENDBRANCH  28  29
ENDBRANCH  25  28
ENDBRANCH  23  25
ENDBRANCH  20  21
BRANCH  20  40
ATOM     40  CB  THR A  11      33.327  17.575 107.655  0.00  0.00    +0.137 C 
ATOM     41  CG2 THR A  11      34.447  16.699 108.180  0.00  0.00    +0.034 C 
BRANCH  40  42
ATOM     42  OG1 THR A  11      33.777  18.930 107.588  0.00  0.00    -0.382 OA
ATOM     43  HG1 THR A  11      34.544  18.991 106.965  0.00  0.00    +0.210 HD
ENDBRANCH  40  42
ENDBRANCH  20  40
ENDBRANCH  17  20
ENDBRANCH  15  16
BRANCH  15  44
ATOM     44  CB  CYS A  10      36.014  15.049 103.509  0.00  0.00    +0.098 C 
ATOM     45  SG  CYS A  10      37.094  14.700 102.105  0.00  0.00    -0.080 S 
ENDBRANCH  15  44
ENDBRANCH  12  15
ENDBRANCH  10  11
BRANCH  10  46
ATOM     46  CB  ILE A   9      37.241  20.169 102.031  0.00  0.00    +0.027 C 
ATOM     47  CG2 ILE A   9      38.065  18.932 101.707  0.00  0.00    +0.002 C 
BRANCH  46  48
ATOM     48  CG1 ILE A   9      36.380  20.594 100.831  0.00  0.00    +0.002 C 
ATOM     49  CD1 ILE A   9      35.704  21.956 101.012  0.00  0.00    +0.000 C 
ENDBRANCH  46  48
ENDBRANCH  10  46
ENDBRANCH   8  10
ENDBRANCH   5   6
BRANCH   5  50
ATOM     50  CB  ARG A   8      38.179  20.934 107.161  0.00  0.00    +0.033 C 
BRANCH  50  51
ATOM     51  CG  ARG A   8      38.725  21.014 108.587  0.00  0.00    +0.045 C 
BRANCH  51  52
ATOM     52  CD  ARG A   8      39.268  22.386 108.962  0.00  0.00    +0.174 C 
BRANCH  52  53
ATOM     53  NE  ARG A   8      39.370  22.486 110.415  0.00  0.00    -0.265 N 
ATOM     54  CZ  ARG A   8      39.410  23.629 111.088  0.00  0.00    +0.342 C 
ATOM     55  NH2 ARG A   8      39.450  23.622 112.413  0.00  0.00    -0.292 N 
ATOM     56 HH21 ARG A   8      39.481  24.520 112.937  0.00  0.00    +0.255 HD
ATOM     57 HH22 ARG A   8      39.450  22.719 112.928  0.00  0.00    +0.255 HD
ATOM     58  NH1 ARG A   8      39.367  24.780 110.439  0.00  0.00    -0.292 N 
ATOM     59 HH11 ARG A   8      39.398  25.676 110.966  0.00  0.00    +0.255 HD
ATOM     60 HH12 ARG A   8      39.302  24.790 109.401  0.00  0.00    +0.255 HD
ATOM     61  HE  ARG A   8      39.414  21.601 110.960  0.00  0.00    +0.259 HD
ENDBRANCH  52  53
ENDBRANCH  51  52
ENDBRANCH  50  51
ENDBRANCH   5  50
ENDBRANCH   2   5
BRANCH   1  62
ATOM     62  CA  LEU A   7      39.029  16.186 106.670  0.00  0.00    +0.149 C 
BRANCH  62  64
ATOM     63  C   ILE A   6      39.974  16.864 104.539  0.00  0.00    +0.241 C 
ATOM     64  N   LEU A   7      40.142  16.625 105.833  0.00  0.00    -0.297 N 
ATOM     65  H   LEU A   7      41.082  16.752 106.259  0.00  0.00    +0.150 HD
ATOM     66  O   ILE A   6      38.889  16.720 103.971  0.00  0.00    -0.273 OA
BRANCH  63  67
ATOM     67  CA  ILE A   6      41.207  17.329 103.768  0.00  0.00    +0.149 C 
BRANCH  67  69
ATOM     68  C   LEU A   5      41.417  19.555 104.762  0.00  0.00    +0.241 C 
ATOM     69  N   ILE A   6      41.942  18.359 104.501  0.00  0.00    -0.297 N 
ATOM     70  H   ILE A   6      42.907  18.151 104.829  0.00  0.00    +0.150 HD
ATOM     71  O   LEU A   5      40.285  19.881 104.406  0.00  0.00    -0.273 OA
BRANCH  68  72
ATOM     72  CA  LEU A   5      42.312  20.527 105.546  0.00  0.00    +0.149 C 
BRANCH  72  75
ATOM     73  C   ILE A   4      42.289  19.207 107.585  0.00  0.00    +0.241 C 
ATOM     74  O   ILE A   4      41.065  19.291 107.659  0.00  0.00    -0.273 OA
ATOM     75  N   LEU A   5      42.990  19.784 106.611  0.00  0.00    -0.297 N 
ATOM     76  H   LEU A   5      44.027  19.707 106.606  0.00  0.00    +0.150 HD
BRANCH  73  77
ATOM     77  CA  ILE A   4      43.065  18.416 108.635  0.00  0.00    +0.149 C 
BRANCH  77  79
ATOM     78  C   ASP A   3      44.009  16.653 107.234  0.00  0.00    +0.241 C 
ATOM     79  N   ILE A   4      44.181  17.667 108.077  0.00  0.00    -0.297 N 
ATOM     80  H   ILE A   4      45.149  17.935 108.348  0.00  0.00    +0.150 HD
ATOM     81  O   ASP A   3      42.906  16.290 106.819  0.00  0.00    -0.273 OA
BRANCH  78  82
ATOM     82  CA  ASP A   3      45.292  15.958 106.791  0.00  0.00    +0.160 C 
BRANCH  82  84
ATOM     83  C   LEU A   2      45.804  17.862 105.340  0.00  0.00    +0.241 C 
ATOM     84  N   ASP A   3      46.200  16.970 106.249  0.00  0.00    -0.297 N 
ATOM     85  H   ASP A   3      47.185  16.994 106.583  0.00  0.00    +0.150 HD
ATOM     86  O   LEU A   2      44.672  17.880 104.863  0.00  0.00    -0.273 OA
BRANCH  83  87
ATOM     87  CA  LEU A   2      46.845  18.881 104.886  0.00  0.00    +0.149 C 
BRANCH  87  90
ATOM     88  C   CYS A   1      46.954  20.029 107.025  0.00  0.00    +0.239 C 
ATOM     89  O   CYS A   1      45.740  20.227 107.014  0.00  0.00    -0.274 OA
ATOM     90  N   LEU A   2      47.586  19.398 106.038  0.00  0.00    -0.297 N 
ATOM     91  H   LEU A   2      48.617  19.271 106.086  0.00  0.00    +0.150 HD
BRANCH  88  92
ATOM     92  CA  CYS A   1      47.790  20.539 108.200  0.00  0.00    +0.156 C 
BRANCH  92  93
ATOM     93  CB  CYS A   1      48.553  21.795 107.775  0.00  0.00    +0.095 C 
ATOM     94  SG  CYS A   1      47.465  23.239 107.687  0.00  0.00    -0.080 S 
ENDBRANCH  92  93
BRANCH  92  95
ATOM     95  N   CYS A   1      48.690  19.579 108.827  0.00  0.00    -0.237 NA
ATOM     96  H   CYS A   1      49.703  19.799 108.912  0.00  0.00    +0.142 HD
ENDBRANCH  92  95
ENDBRANCH  88  92
ENDBRANCH  87  90
BRANCH  87  97
ATOM     97  CB  LEU A   2      47.777  18.212 103.868  0.00  0.00    +0.029 C 
BRANCH  97  98
ATOM     98  CG  LEU A   2      47.730  18.722 102.419  0.00  0.00    +0.002 C 
ATOM     99  CD2 LEU A   2      46.299  19.027 101.967  0.00  0.00    +0.000 C 
ATOM    100  CD1 LEU A   2      48.346  17.674 101.518  0.00  0.00    +0.000 C 
ENDBRANCH  97  98
ENDBRANCH  87  97
ENDBRANCH  83  87
ENDBRANCH  82  84
BRANCH  82 101
ATOM    101  CB  ASP A   3      45.896  15.284 108.031  0.00  0.00    +0.143 C 
BRANCH 101 102
ATOM    102  CG  ASP A   3      47.138  14.467 107.727  0.00  0.00    +0.367 C 
ATOM    103  OD2 ASP A   3      47.938  14.240 108.662  0.00  0.00    -0.246 OA
ATOM    104  OD1 ASP A   3      47.318  14.040 106.575  0.00  0.00    -0.246 OA
ENDBRANCH 101 102
ENDBRANCH  82 101
ENDBRANCH  78  82
ENDBRANCH  77  79
BRANCH  77 105
ATOM    105  CB  ILE A   4      43.560  19.337 109.782  0.00  0.00    +0.027 C 
ATOM    106  CG2 ILE A   4      42.401  20.163 110.348  0.00  0.00    +0.002 C 
BRANCH 105 107
ATOM    107  CG1 ILE A   4      44.172  18.470 110.894  0.00  0.00    +0.002 C 
ATOM    108  CD1 ILE A   4      44.706  19.252 112.089  0.00  0.00    +0.000 C 
ENDBRANCH 105 107
ENDBRANCH  77 105
ENDBRANCH  73  77
ENDBRANCH  72  75
BRANCH  72 109
ATOM    109  CB  LEU A   5      43.333  21.159 104.594  0.00  0.00    +0.029 C 
BRANCH 109 110
ATOM    110  CG  LEU A   5      44.046  22.458 105.005  0.00  0.00    +0.002 C 
ATOM    111  CD2 LEU A   5      43.087  23.635 104.859  0.00  0.00    +0.000 C 
ATOM    112  CD1 LEU A   5      45.304  22.666 104.138  0.00  0.00    +0.000 C 
ENDBRANCH 109 110
ENDBRANCH  72 109
ENDBRANCH  68  72
ENDBRANCH  67  69
BRANCH  67 113
ATOM    113  CB  ILE A   6      42.117  16.104 103.480  0.00  0.00    +0.027 C 
ATOM    114  CG2 ILE A   6      41.275  14.942 102.919  0.00  0.00    +0.002 C 
BRANCH 113 115
ATOM    115  CG1 ILE A   6      43.231  16.520 102.505  0.00  0.00    +0.002 C 
ATOM    116  CD1 ILE A   6      44.328  15.495 102.307  0.00  0.00    +0.000 C 
ENDBRANCH 113 115
ENDBRANCH  67 113
ENDBRANCH  63  67
ENDBRANCH  62  64
BRANCH  62 117
ATOM    117  CB  LEU A   7      39.529  15.890 108.085  0.00  0.00    +0.029 C 
BRANCH 117 118
ATOM    118  CG  LEU A   7      38.462  15.616 109.155  0.00  0.00    +0.002 C 
ATOM    119  CD2 LEU A   7      39.168  15.325 110.477  0.00  0.00    +0.000 C 
ATOM    120  CD1 LEU A   7      37.573  14.446 108.743  0.00  0.00    +0.000 C 
ENDBRANCH 117 118
ENDBRANCH  62 117
ENDBRANCH   1  62
TORSDOF 50
REMARK  Name = ../refined-set-2016/1xap/1xap_pocket.pdb
REMARK  261 active torsions:
REMARK  status: ('A' for Active; 'I' for Inactive)
REMARK    1  A    between atoms: _1  and  _3
REMARK    2  A    between atoms: _3  and  _4
REMARK    3  A    between atoms: _3  and  _6
REMARK    4  A    between atoms: _6  and  _7
REMARK    5  A    between atoms: _10  and  _12
REMARK    6  A    between atoms: _12  and  _13
REMARK    7  A    between atoms: _12  and  _15
REMARK    8  A    between atoms: _15  and  _16
REMARK    9  A    between atoms: _23  and  _24
REMARK   10  A    between atoms: _29  and  _31
REMARK   11  A    between atoms: _31  and  _32
REMARK   12  A    between atoms: _31  and  _34
REMARK   13  A    between atoms: _34  and  _35
REMARK   14  A    between atoms: _38  and  _40
REMARK   15  A    between atoms: _40  and  _41
REMARK   16  A    between atoms: _40  and  _43
REMARK   17  A    between atoms: _43  and  _44
REMARK   18  A    between atoms: _54  and  _56
REMARK   19  A    between atoms: _56  and  _57
REMARK   20  A    between atoms: _56  and  _59
REMARK   21  A    between atoms: _59  and  _60
REMARK   22  A    between atoms: _60  and  _61
REMARK   23  A    between atoms: _61  and  _62
REMARK   24  A    between atoms: _62  and  _63
REMARK   25  A    between atoms: _67  and  _69
REMARK   26  A    between atoms: _69  and  _70
REMARK   27  A    between atoms: _69  and  _72
REMARK   28  A    between atoms: _72  and  _73
REMARK   29  A    between atoms: _79  and  _81
REMARK   30  A    between atoms: _81  and  _82
REMARK   31  A    between atoms: _81  and  _84
REMARK   32  A    between atoms: _84  and  _85
REMARK   33  A    between atoms: _87  and  _89
REMARK   34  A    between atoms: _89  and  _90
REMARK   35  A    between atoms: _89  and  _92
REMARK   36  A    between atoms: _92  and  _93
REMARK   37  A    between atoms: _93  and  _94
REMARK   38  A    between atoms: _97  and  _99
REMARK   39  A    between atoms: _99  and  _100
REMARK   40  A    between atoms: _99  and  _102
REMARK   41  A    between atoms: _102  and  _103
REMARK   42  A    between atoms: _106  and  _108
REMARK   43  A    between atoms: _108  and  _109
REMARK   44  A    between atoms: _112  and  _114
REMARK   45  A    between atoms: _114  and  _115
REMARK   46  A    between atoms: _114  and  _117
REMARK   47  A    between atoms: _117  and  _118
REMARK   48  A    between atoms: _121  and  _123
REMARK   49  A    between atoms: _123  and  _124
REMARK   50  A    between atoms: _123  and  _126
REMARK   51  A    between atoms: _126  and  _127
REMARK   52  A    between atoms: _127  and  _128
REMARK   53  A    between atoms: _128  and  _129
REMARK   54  A    between atoms: _129  and  _130
REMARK   55  A    between atoms: _134  and  _136
REMARK   56  A    between atoms: _136  and  _137
REMARK   57  A    between atoms: _136  and  _139
REMARK   58  A    between atoms: _141  and  _143
REMARK   59  A    between atoms: _143  and  _144
REMARK   60  A    between atoms: _143  and  _146
REMARK   61  A    between atoms: _146  and  _147
REMARK   62  A    between atoms: _150  and  _152
REMARK   63  A    between atoms: _152  and  _153
REMARK   64  A    between atoms: _152  and  _155
REMARK   65  A    between atoms: _155  and  _156
REMARK   66  A    between atoms: _156  and  _157
REMARK   67  A    between atoms: _157  and  _158
REMARK   68  A    between atoms: _158  and  _159
REMARK   69  A    between atoms: _163  and  _165
REMARK   70  A    between atoms: _165  and  _166
REMARK   71  A    between atoms: _165  and  _168
REMARK   72  A    between atoms: _168  and  _169
REMARK   73  A    between atoms: _172  and  _174
REMARK   74  A    between atoms: _174  and  _175
REMARK   75  A    between atoms: _174  and  _177
REMARK   76  A    between atoms: _179  and  _181
REMARK   77  A    between atoms: _181  and  _182
REMARK   78  A    between atoms: _181  and  _184
REMARK   79  A    between atoms: _184  and  _185
REMARK   80  A    between atoms: _188  and  _190
REMARK   81  A    between atoms: _190  and  _191
REMARK   82  A    between atoms: _190  and  _193
REMARK   83  A    between atoms: _193  and  _194
REMARK   84  A    between atoms: _197  and  _199
REMARK   85  A    between atoms: _199  and  _200
REMARK   86  A    between atoms: _199  and  _202
REMARK   87  A    between atoms: _202  and  _203
REMARK   88  A    between atoms: _206  and  _208
REMARK   89  A    between atoms: _208  and  _209
REMARK   90  A    between atoms: _208  and  _211
REMARK   91  A    between atoms: _211  and  _212
REMARK   92  A    between atoms: _215  and  _217
REMARK   93  A    between atoms: _217  and  _218
REMARK   94  A    between atoms: _217  and  _220
REMARK   95  A    between atoms: _220  and  _221
REMARK   96  A    between atoms: _224  and  _226
REMARK   97  A    between atoms: _226  and  _227
REMARK   98  A    between atoms: _226  and  _229
REMARK   99  A    between atoms: _229  and  _230
REMARK  100  A    between atoms: _233  and  _235
REMARK  101  A    between atoms: _235  and  _236
REMARK  102  A    between atoms: _235  and  _238
REMARK  103  A    between atoms: _238  and  _239
REMARK  104  A    between atoms: _239  and  _240
REMARK  105  A    between atoms: _240  and  _241
REMARK  106  A    between atoms: _250  and  _252
REMARK  107  A    between atoms: _252  and  _253
REMARK  108  A    between atoms: _252  and  _255
REMARK  109  A    between atoms: _255  and  _256
REMARK  110  A    between atoms: _259  and  _261
REMARK  111  A    between atoms: _261  and  _262
REMARK  112  A    between atoms: _261  and  _264
REMARK  113  A    between atoms: _266  and  _268
REMARK  114  A    between atoms: _268  and  _269
REMARK  115  A    between atoms: _268  and  _271
REMARK  116  A    between atoms: _271  and  _272
REMARK  117  A    between atoms: _275  and  _277
REMARK  118  A    between atoms: _277  and  _278
REMARK  119  A    between atoms: _277  and  _280
REMARK  120  A    between atoms: _280  and  _281
REMARK  121  A    between atoms: _281  and  _282
REMARK  122  A    between atoms: _282  and  _283
REMARK  123  A    between atoms: _292  and  _294
REMARK  124  A    between atoms: _294  and  _295
REMARK  125  A    between atoms: _294  and  _297
REMARK  126  A    between atoms: _297  and  _298
REMARK  127  A    between atoms: _298  and  _299
REMARK  128  A    between atoms: _301  and  _303
REMARK  129  A    between atoms: _303  and  _304
REMARK  130  A    between atoms: _303  and  _306
REMARK  131  A    between atoms: _306  and  _307
REMARK  132  A    between atoms: _310  and  _312
REMARK  133  A    between atoms: _312  and  _313
REMARK  134  A    between atoms: _312  and  _315
REMARK  135  A    between atoms: _315  and  _316
REMARK  136  A    between atoms: _322  and  _324
REMARK  137  A    between atoms: _324  and  _325
REMARK  138  A    between atoms: _324  and  _327
REMARK  139  A    between atoms: _327  and  _328
REMARK  140  A    between atoms: _330  and  _332
REMARK  141  A    between atoms: _332  and  _333
REMARK  142  A    between atoms: _332  and  _335
REMARK  143  A    between atoms: _335  and  _336
REMARK  144  A    between atoms: _339  and  _341
REMARK  145  A    between atoms: _341  and  _342
REMARK  146  A    between atoms: _344  and  _346
REMARK  147  A    between atoms: _346  and  _347
REMARK  148  A    between atoms: _346  and  _349
REMARK  149  A    between atoms: _349  and  _350
REMARK  150  A    between atoms: _353  and  _355
REMARK  151  A    between atoms: _355  and  _356
REMARK  152  A    between atoms: _355  and  _358
REMARK  153  A    between atoms: _358  and  _359
REMARK  154  A    between atoms: _359  and  _360
REMARK  155  A    between atoms: _362  and  _364
REMARK  156  A    between atoms: _364  and  _365
REMARK  157  A    between atoms: _364  and  _367
REMARK  158  A    between atoms: _367  and  _368
REMARK  159  A    between atoms: _373  and  _375
REMARK  160  A    between atoms: _375  and  _376
REMARK  161  A    between atoms: _379  and  _381
REMARK  162  A    between atoms: _381  and  _382
REMARK  163  A    between atoms: _384  and  _386
REMARK  164  A    between atoms: _386  and  _387
REMARK  165  A    between atoms: _386  and  _389
REMARK  166  A    between atoms: _389  and  _390
REMARK  167  A    between atoms: _396  and  _398
REMARK  168  A    between atoms: _398  and  _399
REMARK  169  A    between atoms: _401  and  _403
REMARK  170  A    between atoms: _403  and  _404
REMARK  171  A    between atoms: _403  and  _406
REMARK  172  A    between atoms: _406  and  _407
REMARK  173  A    between atoms: _410  and  _412
REMARK  174  A    between atoms: _412  and  _413
REMARK  175  A    between atoms: _412  and  _415
REMARK  176  A    between atoms: _415  and  _416
REMARK  177  A    between atoms: _419  and  _421
REMARK  178  A    between atoms: _421  and  _422
REMARK  179  A    between atoms: _421  and  _424
REMARK  180  A    between atoms: _424  and  _425
REMARK  181  A    between atoms: _428  and  _430
REMARK  182  A    between atoms: _430  and  _431
REMARK  183  A    between atoms: _430  and  _433
REMARK  184  A    between atoms: _436  and  _438
REMARK  185  A    between atoms: _438  and  _439
REMARK  186  A    between atoms: _438  and  _441
REMARK  187  A    between atoms: _441  and  _442
REMARK  188  A    between atoms: _445  and  _447
REMARK  189  A    between atoms: _447  and  _448
REMARK  190  A    between atoms: _447  and  _450
REMARK  191  A    between atoms: _450  and  _451
REMARK  192  A    between atoms: _453  and  _455
REMARK  193  A    between atoms: _455  and  _456
REMARK  194  A    between atoms: _459  and  _461
REMARK  195  A    between atoms: _461  and  _462
REMARK  196  A    between atoms: _461  and  _464
REMARK  197  A    between atoms: _464  and  _465
REMARK  198  A    between atoms: _465  and  _466
REMARK  199  A    between atoms: _466  and  _467
REMARK  200  A    between atoms: _467  and  _468
REMARK  201  A    between atoms: _472  and  _474
REMARK  202  A    between atoms: _474  and  _475
REMARK  203  A    between atoms: _477  and  _479
REMARK  204  A    between atoms: _479  and  _480
REMARK  205  A    between atoms: _483  and  _485
REMARK  206  A    between atoms: _485  and  _486
REMARK  207  A    between atoms: _485  and  _488
REMARK  208  A    between atoms: _488  and  _489
REMARK  209  A    between atoms: _489  and  _490
REMARK  210  A    between atoms: _493  and  _495
REMARK  211  A    between atoms: _495  and  _496
REMARK  212  A    between atoms: _495  and  _498
REMARK  213  A    between atoms: _498  and  _499
REMARK  214  A    between atoms: _499  and  _500
REMARK  215  A    between atoms: _500  and  _501
REMARK  216  A    between atoms: _510  and  _512
REMARK  217  A    between atoms: _512  and  _513
REMARK  218  A    between atoms: _512  and  _515
REMARK  219  A    between atoms: _518  and  _520
REMARK  220  A    between atoms: _520  and  _521
REMARK  221  A    between atoms: _520  and  _523
REMARK  222  A    between atoms: _523  and  _524
REMARK  223  A    between atoms: _527  and  _529
REMARK  224  A    between atoms: _529  and  _530
REMARK  225  A    between atoms: _529  and  _532
REMARK  226  A    between atoms: _532  and  _533
REMARK  227  A    between atoms: _536  and  _538
REMARK  228  A    between atoms: _538  and  _539
REMARK  229  A    between atoms: _538  and  _541
REMARK  230  A    between atoms: _541  and  _542
REMARK  231  A    between atoms: _545  and  _547
REMARK  232  A    between atoms: _547  and  _548
REMARK  233  A    between atoms: _547  and  _550
REMARK  234  A    between atoms: _550  and  _551
REMARK  235  A    between atoms: _551  and  _552
REMARK  236  A    between atoms: _552  and  _553
REMARK  237  A    between atoms: _553  and  _554
REMARK  238  A    between atoms: _558  and  _560
REMARK  239  A    between atoms: _560  and  _561
REMARK  240  A    between atoms: _560  and  _563
REMARK  241  A    between atoms: _563  and  _564
REMARK  242  A    between atoms: _564  and  _565
REMARK  243  A    between atoms: _568  and  _569
REMARK  244  A    between atoms: _574  and  _576
REMARK  245  A    between atoms: _576  and  _577
REMARK  246  A    between atoms: _576  and  _579
REMARK  247  A    between atoms: _579  and  _580
REMARK  248  A    between atoms: _583  and  _585
REMARK  249  A    between atoms: _585  and  _586
REMARK  250  A    between atoms: _585  and  _588
REMARK  251  A    between atoms: _588  and  _589
REMARK  252  A    between atoms: _589  and  _590
REMARK  253  A    between atoms: _595  and  _597
REMARK  254  A    between atoms: _597  and  _598
REMARK  255  A    between atoms: _597  and  _600
REMARK  256  A    between atoms: _600  and  _601
REMARK  257  A    between atoms: _601  and  _602
REMARK  258  A    between atoms: _604  and  _606
REMARK  259  A    between atoms: _606  and  _607
REMARK  260  A    between atoms: _606  and  _609
REMARK  261  A    between atoms: _609  and  _610
REMARK                            x       y       z     vdW  Elec       q    Type
REMARK                         _______ _______ _______ _____ _____    ______ ____
ROOT
ATOM      1  C   PHE A   3      33.517  26.658 102.568  0.00  0.00    +0.241 C 
ATOM      2  N   SER A   4      34.425  27.174 103.394  0.00  0.00    -0.295 N 
ATOM      3  H   SER A   4      35.428  26.951 103.233  0.00  0.00    +0.150 HD
ATOM      4  O   PHE A   3      32.313  26.917 102.645  0.00  0.00    -0.273 OA
ENDROOT
BRANCH   2   5
ATOM      5  CA  SER A   4      34.071  28.041 104.518  0.00  0.00    +0.178 C 
BRANCH   5   6
ATOM      6  C   SER A   4      33.252  29.294 104.270  0.00  0.00    +0.243 C 
ATOM      7  O   SER A   4      32.645  29.827 105.205  0.00  0.00    -0.273 OA
ATOM      8  N   ASP A   5      33.239  29.772 103.031  0.00  0.00    -0.296 N 
ATOM      9  H   ASP A   5      33.771  29.278 102.286  0.00  0.00    +0.150 HD
BRANCH   8  10
ATOM     10  CA  ASP A   5      32.493  30.974 102.699  0.00  0.00    +0.160 C 
BRANCH  10  11
ATOM     11  C   ASP A   5      31.193  30.640 101.983  0.00  0.00    +0.241 C 
ATOM     12  N   GLY A   6      30.873  29.354 101.878  0.00  0.00    -0.295 N 
ATOM     13  H   GLY A   6      31.496  28.625 102.282  0.00  0.00    +0.150 HD
ATOM     14  O   ASP A   5      30.493  31.535 101.521  0.00  0.00    -0.273 OA
BRANCH  12  15
ATOM     15  CA  GLY A   6      29.648  28.973 101.196  0.00  0.00    +0.176 C 
BRANCH  15  16
ATOM     16  C   GLY A   6      29.841  28.516  99.757  0.00  0.00    +0.243 C 
ATOM     17  N   LEU A   7      31.045  28.706  99.212  0.00  0.00    -0.298 N 
ATOM     18  H   LEU A   7      31.795  29.163  99.769  0.00  0.00    +0.150 HD
ATOM     19  O   GLY A   6      28.899  27.999  99.136  0.00  0.00    -0.273 OA
BRANCH  17  20
ATOM     20  CA  LEU A   7      31.320  28.279  97.844  0.00  0.00    +0.137 C 
BRANCH  20  21
ATOM     21  C   LEU A   7      31.088  26.773  97.771  0.00  0.00    +0.227 C 
ATOM     22  O   LEU A   7      31.722  26.006  98.485  0.00  0.00    -0.286 OA
ENDBRANCH  20  21
BRANCH  20  23
ATOM     23  CB  LEU A   7      32.764  28.601  97.436  0.00  0.00    +0.028 C 
BRANCH  23  24
ATOM     24  CG  LEU A   7      33.128  28.205  95.996  0.00  0.00    +0.002 C 
ATOM     25  CD2 LEU A   7      34.626  28.383  95.757  0.00  0.00    +0.000 C 
ATOM     26  CD1 LEU A   7      32.341  29.062  95.018  0.00  0.00    +0.000 C 
ENDBRANCH  23  24
ENDBRANCH  20  23
ENDBRANCH  17  20
ENDBRANCH  15  16
ENDBRANCH  12  15
ENDBRANCH  10  11
BRANCH  10  27
ATOM     27  CB  ASP A   5      33.343  31.878 101.803  0.00  0.00    +0.143 C 
BRANCH  27  28
ATOM     28  CG  ASP A   5      33.492  31.325 100.396  0.00  0.00    +0.367 C 
ATOM     29  OD2 ASP A   5      33.434  30.084 100.227  0.00  0.00    -0.246 OA
ATOM     30  OD1 ASP A   5      33.677  32.130  99.460  0.00  0.00    -0.246 OA
ENDBRANCH  27  28
ENDBRANCH  10  27
ENDBRANCH   8  10
ENDBRANCH   5   6
BRANCH   5  31
ATOM     31  CB  SER A   4      35.331  28.433 105.288  0.00  0.00    +0.166 C 
BRANCH  31  32
ATOM     32  OG  SER A   4      35.798  27.334 106.047  0.00  0.00    -0.380 OA
ATOM     33  H   SER A   4      36.614  27.599 106.541  0.00  0.00    +0.211 HD
ENDBRANCH  31  32
ENDBRANCH   5  31
ENDBRANCH   2   5
BRANCH   1  34
ATOM     34  CA  PHE A   3      34.048  25.705 101.478  0.00  0.00    +0.153 C 
BRANCH  34  37
ATOM     35  C   THR A   2      32.376  23.948 101.185  0.00  0.00    +0.243 C 
ATOM     36  O   THR A   2      32.726  23.346 102.199  0.00  0.00    -0.273 OA
ATOM     37  N   PHE A   3      32.949  25.073 100.765  0.00  0.00    -0.297 N 
ATOM     38  H   PHE A   3      32.597  25.518  99.893  0.00  0.00    +0.150 HD
BRANCH  35  39
ATOM     39  CA  THR A   2      31.218  23.431 100.341  0.00  0.00    +0.176 C 
BRANCH  39  41
ATOM     40  C   MET A   1      31.582  21.540  98.851  0.00  0.00    +0.238 C 
ATOM     41  N   THR A   2      31.300  22.001 100.066  0.00  0.00    -0.295 N 
ATOM     42  H   THR A   2      31.134  21.325 100.839  0.00  0.00    +0.150 HD
ATOM     43  O   MET A   1      31.812  22.274  97.889  0.00  0.00    -0.274 OA
BRANCH  40  44
ATOM     44  CA  MET A   1      31.608  20.027  98.687  0.00  0.00    +0.146 C 
BRANCH  44  45
ATOM     45  N   MET A   1      30.926  19.754  97.427  0.00  0.00    -0.238 NA
ATOM     46  H   MET A   1      31.171  20.321  96.590  0.00  0.00    +0.142 HD
ENDBRANCH  44  45
BRANCH  44  47
ATOM     47  CB  MET A   1      33.050  19.526  98.663  0.00  0.00    +0.038 C 
BRANCH  47  48
ATOM     48  CG  MET A   1      33.146  18.030  98.605  0.00  0.00    +0.060 C 
BRANCH  48  49
ATOM     49  SD  MET A   1      34.753  17.460  99.135  0.00  0.00    -0.139 S 
ATOM     50  CE  MET A   1      34.538  15.683  98.976  0.00  0.00    +0.069 C 
ENDBRANCH  48  49
ENDBRANCH  47  48
ENDBRANCH  44  47
ENDBRANCH  40  44
ENDBRANCH  39  41
BRANCH  39  51
ATOM     51  CB  THR A   2      29.909  23.770 101.085  0.00  0.00    +0.137 C 
ATOM     52  CG2 THR A   2      29.790  25.275 101.282  0.00  0.00    +0.034 C 
BRANCH  51  53
ATOM     53  OG1 THR A   2      28.788  23.296 100.327  0.00  0.00    -0.382 OA
ATOM     54  HG1 THR A   2      28.858  22.315 100.214  0.00  0.00    +0.210 HD
ENDBRANCH  51  53
ENDBRANCH  39  51
ENDBRANCH  35  39
ENDBRANCH  34  37
BRANCH  34  55
ATOM     55  CB  PHE A   3      34.957  26.453 100.490  0.00  0.00    +0.055 C 
BRANCH  55  56
ATOM     56  CG  PHE A   3      35.622  25.548  99.481  0.00  0.00    -0.020 A 
ATOM     57  CD2 PHE A   3      36.889  25.029  99.725  0.00  0.00    -0.004 A 
ATOM     58  CE2 PHE A   3      37.500  24.151  98.812  0.00  0.00    -0.000 A 
ATOM     59  CZ  PHE A   3      36.837  23.796  97.645  0.00  0.00    -0.000 A 
ATOM     60  CE1 PHE A   3      35.563  24.314  97.390  0.00  0.00    -0.000 A 
ATOM     61  CD1 PHE A   3      34.967  25.186  98.308  0.00  0.00    -0.004 A 
ENDBRANCH  55  56
ENDBRANCH  34  55
ENDBRANCH   1  34
TORSDOF 27
REMARK  Name = ../refined-set-2016/1xap/1xap_pocket.pdb
REMARK  261 active torsions:
REMARK  status: ('A' for Active; 'I' for Inactive)
REMARK    1  A    between atoms: _1  and  _3
REMARK    2  A    between atoms: _3  and  _4
REMARK    3  A    between atoms: _3  and  _6
REMARK    4  A    between atoms: _6  and  _7
REMARK    5  A    between atoms: _10  and  _12
REMARK    6  A    between atoms: _12  and  _13
REMARK    7  A    between atoms: _12  and  _15
REMARK    8  A    between atoms: _15  and  _16
REMARK    9  A    between atoms: _23  and  _24
REMARK   10  A    between atoms: _29  and  _31
REMARK   11  A    between atoms: _31  and  _32
REMARK   12  A    between atoms: _31  and  _34
REMARK   13  A    between atoms: _34  and  _35
REMARK   14  A    between atoms: _38  and  _40
REMARK   15  A    between atoms: _40  and  _41
REMARK   16  A    between atoms: _40  and  _43
REMARK   17  A    between atoms: _43  and  _44
REMARK   18  A    between atoms: _54  and  _56
REMARK   19  A    between atoms: _56  and  _57
REMARK   20  A    between atoms: _56  and  _59
REMARK   21  A    between atoms: _59  and  _60
REMARK   22  A    between atoms: _60  and  _61
REMARK   23  A    between atoms: _61  and  _62
REMARK   24  A    between atoms: _62  and  _63
REMARK   25  A    between atoms: _67  and  _69
REMARK   26  A    between atoms: _69  and  _70
REMARK   27  A    between atoms: _69  and  _72
REMARK   28  A    between atoms: _72  and  _73
REMARK   29  A    between atoms: _79  and  _81
REMARK   30  A    between atoms: _81  and  _82
REMARK   31  A    between atoms: _81  and  _84
REMARK   32  A    between atoms: _84  and  _85
REMARK   33  A    between atoms: _87  and  _89
REMARK   34  A    between atoms: _89  and  _90
REMARK   35  A    between atoms: _89  and  _92
REMARK   36  A    between atoms: _92  and  _93
REMARK   37  A    between atoms: _93  and  _94
REMARK   38  A    between atoms: _97  and  _99
REMARK   39  A    between atoms: _99  and  _100
REMARK   40  A    between atoms: _99  and  _102
REMARK   41  A    between atoms: _102  and  _103
REMARK   42  A    between atoms: _106  and  _108
REMARK   43  A    between atoms: _108  and  _109
REMARK   44  A    between atoms: _112  and  _114
REMARK   45  A    between atoms: _114  and  _115
REMARK   46  A    between atoms: _114  and  _117
REMARK   47  A    between atoms: _117  and  _118
REMARK   48  A    between atoms: _121  and  _123
REMARK   49  A    between atoms: _123  and  _124
REMARK   50  A    between atoms: _123  and  _126
REMARK   51  A    between atoms: _126  and  _127
REMARK   52  A    between atoms: _127  and  _128
REMARK   53  A    between atoms: _128  and  _129
REMARK   54  A    between atoms: _129  and  _130
REMARK   55  A    between atoms: _134  and  _136
REMARK   56  A    between atoms: _136  and  _137
REMARK   57  A    between atoms: _136  and  _139
REMARK   58  A    between atoms: _141  and  _143
REMARK   59  A    between atoms: _143  and  _144
REMARK   60  A    between atoms: _143  and  _146
REMARK   61  A    between atoms: _146  and  _147
REMARK   62  A    between atoms: _150  and  _152
REMARK   63  A    between atoms: _152  and  _153
REMARK   64  A    between atoms: _152  and  _155
REMARK   65  A    between atoms: _155  and  _156
REMARK   66  A    between atoms: _156  and  _157
REMARK   67  A    between atoms: _157  and  _158
REMARK   68  A    between atoms: _158  and  _159
REMARK   69  A    between atoms: _163  and  _165
REMARK   70  A    between atoms: _165  and  _166
REMARK   71  A    between atoms: _165  and  _168
REMARK   72  A    between atoms: _168  and  _169
REMARK   73  A    between atoms: _172  and  _174
REMARK   74  A    between atoms: _174  and  _175
REMARK   75  A    between atoms: _174  and  _177
REMARK   76  A    between atoms: _179  and  _181
REMARK   77  A    between atoms: _181  and  _182
REMARK   78  A    between atoms: _181  and  _184
REMARK   79  A    between atoms: _184  and  _185
REMARK   80  A    between atoms: _188  and  _190
REMARK   81  A    between atoms: _190  and  _191
REMARK   82  A    between atoms: _190  and  _193
REMARK   83  A    between atoms: _193  and  _194
REMARK   84  A    between atoms: _197  and  _199
REMARK   85  A    between atoms: _199  and  _200
REMARK   86  A    between atoms: _199  and  _202
REMARK   87  A    between atoms: _202  and  _203
REMARK   88  A    between atoms: _206  and  _208
REMARK   89  A    between atoms: _208  and  _209
REMARK   90  A    between atoms: _208  and  _211
REMARK   91  A    between atoms: _211  and  _212
REMARK   92  A    between atoms: _215  and  _217
REMARK   93  A    between atoms: _217  and  _218
REMARK   94  A    between atoms: _217  and  _220
REMARK   95  A    between atoms: _220  and  _221
REMARK   96  A    between atoms: _224  and  _226
REMARK   97  A    between atoms: _226  and  _227
REMARK   98  A    between atoms: _226  and  _229
REMARK   99  A    between atoms: _229  and  _230
REMARK  100  A    between atoms: _233  and  _235
REMARK  101  A    between atoms: _235  and  _236
REMARK  102  A    between atoms: _235  and  _238
REMARK  103  A    between atoms: _238  and  _239
REMARK  104  A    between atoms: _239  and  _240
REMARK  105  A    between atoms: _240  and  _241
REMARK  106  A    between atoms: _250  and  _252
REMARK  107  A    between atoms: _252  and  _253
REMARK  108  A    between atoms: _252  and  _255
REMARK  109  A    between atoms: _255  and  _256
REMARK  110  A    between atoms: _259  and  _261
REMARK  111  A    between atoms: _261  and  _262
REMARK  112  A    between atoms: _261  and  _264
REMARK  113  A    between atoms: _266  and  _268
REMARK  114  A    between atoms: _268  and  _269
REMARK  115  A    between atoms: _268  and  _271
REMARK  116  A    between atoms: _271  and  _272
REMARK  117  A    between atoms: _275  and  _277
REMARK  118  A    between atoms: _277  and  _278
REMARK  119  A    between atoms: _277  and  _280
REMARK  120  A    between atoms: _280  and  _281
REMARK  121  A    between atoms: _281  and  _282
REMARK  122  A    between atoms: _282  and  _283
REMARK  123  A    between atoms: _292  and  _294
REMARK  124  A    between atoms: _294  and  _295
REMARK  125  A    between atoms: _294  and  _297
REMARK  126  A    between atoms: _297  and  _298
REMARK  127  A    between atoms: _298  and  _299
REMARK  128  A    between atoms: _301  and  _303
REMARK  129  A    between atoms: _303  and  _304
REMARK  130  A    between atoms: _303  and  _306
REMARK  131  A    between atoms: _306  and  _307
REMARK  132  A    between atoms: _310  and  _312
REMARK  133  A    between atoms: _312  and  _313
REMARK  134  A    between atoms: _312  and  _315
REMARK  135  A    between atoms: _315  and  _316
REMARK  136  A    between atoms: _322  and  _324
REMARK  137  A    between atoms: _324  and  _325
REMARK  138  A    between atoms: _324  and  _327
REMARK  139  A    between atoms: _327  and  _328
REMARK  140  A    between atoms: _330  and  _332
REMARK  141  A    between atoms: _332  and  _333
REMARK  142  A    between atoms: _332  and  _335
REMARK  143  A    between atoms: _335  and  _336
REMARK  144  A    between atoms: _339  and  _341
REMARK  145  A    between atoms: _341  and  _342
REMARK  146  A    between atoms: _344  and  _346
REMARK  147  A    between atoms: _346  and  _347
REMARK  148  A    between atoms: _346  and  _349
REMARK  149  A    between atoms: _349  and  _350
REMARK  150  A    between atoms: _353  and  _355
REMARK  151  A    between atoms: _355  and  _356
REMARK  152  A    between atoms: _355  and  _358
REMARK  153  A    between atoms: _358  and  _359
REMARK  154  A    between atoms: _359  and  _360
REMARK  155  A    between atoms: _362  and  _364
REMARK  156  A    between atoms: _364  and  _365
REMARK  157  A    between atoms: _364  and  _367
REMARK  158  A    between atoms: _367  and  _368
REMARK  159  A    between atoms: _373  and  _375
REMARK  160  A    between atoms: _375  and  _376
REMARK  161  A    between atoms: _379  and  _381
REMARK  162  A    between atoms: _381  and  _382
REMARK  163  A    between atoms: _384  and  _386
REMARK  164  A    between atoms: _386  and  _387
REMARK  165  A    between atoms: _386  and  _389
REMARK  166  A    between atoms: _389  and  _390
REMARK  167  A    between atoms: _396  and  _398
REMARK  168  A    between atoms: _398  and  _399
REMARK  169  A    between atoms: _401  and  _403
REMARK  170  A    between atoms: _403  and  _404
REMARK  171  A    between atoms: _403  and  _406
REMARK  172  A    between atoms: _406  and  _407
REMARK  173  A    between atoms: _410  and  _412
REMARK  174  A    between atoms: _412  and  _413
REMARK  175  A    between atoms: _412  and  _415
REMARK  176  A    between atoms: _415  and  _416
REMARK  177  A    between atoms: _419  and  _421
REMARK  178  A    between atoms: _421  and  _422
REMARK  179  A    between atoms: _421  and  _424
REMARK  180  A    between atoms: _424  and  _425
REMARK  181  A    between atoms: _428  and  _430
REMARK  182  A    between atoms: _430  and  _431
REMARK  183  A    between atoms: _430  and  _433
REMARK  184  A    between atoms: _436  and  _438
REMARK  185  A    between atoms: _438  and  _439
REMARK  186  A    between atoms: _438  and  _441
REMARK  187  A    between atoms: _441  and  _442
REMARK  188  A    between atoms: _445  and  _447
REMARK  189  A    between atoms: _447  and  _448
REMARK  190  A    between atoms: _447  and  _450
REMARK  191  A    between atoms: _450  and  _451
REMARK  192  A    between atoms: _453  and  _455
REMARK  193  A    between atoms: _455  and  _456
REMARK  194  A    between atoms: _459  and  _461
REMARK  195  A    between atoms: _461  and  _462
REMARK  196  A    between atoms: _461  and  _464
REMARK  197  A    between atoms: _464  and  _465
REMARK  198  A    between atoms: _465  and  _466
REMARK  199  A    between atoms: _466  and  _467
REMARK  200  A    between atoms: _467  and  _468
REMARK  201  A    between atoms: _472  and  _474
REMARK  202  A    between atoms: _474  and  _475
REMARK  203  A    between atoms: _477  and  _479
REMARK  204  A    between atoms: _479  and  _480
REMARK  205  A    between atoms: _483  and  _485
REMARK  206  A    between atoms: _485  and  _486
REMARK  207  A    between atoms: _485  and  _488
REMARK  208  A    between atoms: _488  and  _489
REMARK  209  A    between atoms: _489  and  _490
REMARK  210  A    between atoms: _493  and  _495
REMARK  211  A    between atoms: _495  and  _496
REMARK  212  A    between atoms: _495  and  _498
REMARK  213  A    between atoms: _498  and  _499
REMARK  214  A    between atoms: _499  and  _500
REMARK  215  A    between atoms: _500  and  _501
REMARK  216  A    between atoms: _510  and  _512
REMARK  217  A    between atoms: _512  and  _513
REMARK  218  A    between atoms: _512  and  _515
REMARK  219  A    between atoms: _518  and  _520
REMARK  220  A    between atoms: _520  and  _521
REMARK  221  A    between atoms: _520  and  _523
REMARK  222  A    between atoms: _523  and  _524
REMARK  223  A    between atoms: _527  and  _529
REMARK  224  A    between atoms: _529  and  _530
REMARK  225  A    between atoms: _529  and  _532
REMARK  226  A    between atoms: _532  and  _533
REMARK  227  A    between atoms: _536  and  _538
REMARK  228  A    between atoms: _538  and  _539
REMARK  229  A    between atoms: _538  and  _541
REMARK  230  A    between atoms: _541  and  _542
REMARK  231  A    between atoms: _545  and  _547
REMARK  232  A    between atoms: _547  and  _548
REMARK  233  A    between atoms: _547  and  _550
REMARK  234  A    between atoms: _550  and  _551
REMARK  235  A    between atoms: _551  and  _552
REMARK  236  A    between atoms: _552  and  _553
REMARK  237  A    between atoms: _553  and  _554
REMARK  238  A    between atoms: _558  and  _560
REMARK  239  A    between atoms: _560  and  _561
REMARK  240  A    between atoms: _560  and  _563
REMARK  241  A    between atoms: _563  and  _564
REMARK  242  A    between atoms: _564  and  _565
REMARK  243  A    between atoms: _568  and  _569
REMARK  244  A    between atoms: _574  and  _576
REMARK  245  A    between atoms: _576  and  _577
REMARK  246  A    between atoms: _576  and  _579
REMARK  247  A    between atoms: _579  and  _580
REMARK  248  A    between atoms: _583  and  _585
REMARK  249  A    between atoms: _585  and  _586
REMARK  250  A    between atoms: _585  and  _588
REMARK  251  A    between atoms: _588  and  _589
REMARK  252  A    between atoms: _589  and  _590
REMARK  253  A    between atoms: _595  and  _597
REMARK  254  A    between atoms: _597  and  _598
REMARK  255  A    between atoms: _597  and  _600
REMARK  256  A    between atoms: _600  and  _601
REMARK  257  A    between atoms: _601  and  _602
REMARK  258  A    between atoms: _604  and  _606
REMARK  259  A    between atoms: _606  and  _607
REMARK  260  A    between atoms: _606  and  _609
REMARK  261  A    between atoms: _609  and  _610
REMARK                            x       y       z     vdW  Elec       q    Type
REMARK                         _______ _______ _______ _____ _____    ______ ____
ROOT
ATOM      1  C   MET A   1      37.920  19.833  91.792  0.00  0.00    +0.238 C 
ATOM      2  O   MET A   1      39.060  20.202  92.099  0.00  0.00    -0.274 OA
ATOM      3  N   HIS A   2      37.681  18.998  90.787  0.00  0.00    -0.298 N 
ATOM      4  H   HIS A   2      36.702  18.713  90.582  0.00  0.00    +0.150 HD
ENDROOT
BRANCH   1   5
ATOM      5  CA  MET A   1      36.686  20.319  92.559  0.00  0.00    +0.146 C 
BRANCH   5   6
ATOM      6  N   MET A   1      35.668  20.639  91.559  0.00  0.00    -0.238 NA
ATOM      7  H   MET A   1      34.781  20.096  91.538  0.00  0.00    +0.142 HD
ENDBRANCH   5   6
BRANCH   5   8
ATOM      8  CB  MET A   1      36.211  19.200  93.494  0.00  0.00    +0.038 C 
BRANCH   8   9
ATOM      9  CG  MET A   1      35.162  19.603  94.529  0.00  0.00    +0.060 C 
BRANCH   9  10
ATOM     10  SD  MET A   1      35.710  20.877  95.684  0.00  0.00    -0.139 S 
ATOM     11  CE  MET A   1      36.499  19.864  96.971  0.00  0.00    +0.069 C 
ENDBRANCH   9  10
ENDBRANCH   8   9
ENDBRANCH   5   8
ENDBRANCH   1   5
BRANCH   3  12
ATOM     12  CA  HIS A   2      38.763  18.474  89.967  0.00  0.00    +0.143 C 
BRANCH  12  13
ATOM     13  C   HIS A   2      39.484  19.615  89.248  0.00  0.00    +0.227 C 
ATOM     14  O   HIS A   2      40.718  19.690  89.262  0.00  0.00    -0.286 OA
ENDBRANCH  12  13
BRANCH  12  15
ATOM     15  CB  HIS A   2      38.216  17.475  88.937  0.00  0.00    +0.075 C 
BRANCH  15  16
ATOM     16  CG  HIS A   2      39.196  17.125  87.856  0.00  0.00    +0.082 A 
ATOM     17  CD2 HIS A   2      39.996  16.043  87.694  0.00  0.00    +0.115 A 
ATOM     18  NE2 HIS A   2      40.732  16.249  86.551  0.00  0.00    -0.221 NA
ATOM     19  CE1 HIS A   2      40.394  17.414  86.028  0.00  0.00    +0.199 A 
ATOM     20  ND1 HIS A   2      39.468  17.965  86.796  0.00  0.00    -0.227 NA
ENDBRANCH  15  16
ENDBRANCH  12  15
ENDBRANCH   3  12
TORSDOF 9
REMARK  Name = ../refined-set-2016/1xap/1xap_pocket.pdb
REMARK  261 active torsions:
REMARK  status: ('A' for Active; 'I' for Inactive)
REMARK    1  A    between atoms: _1  and  _3
REMARK    2  A    between atoms: _3  and  _4
REMARK    3  A    between atoms: _3  and  _6
REMARK    4  A    between atoms: _6  and  _7
REMARK    5  A    between atoms: _10  and  _12
REMARK    6  A    between atoms: _12  and  _13
REMARK    7  A    between atoms: _12  and  _15
REMARK    8  A    between atoms: _15  and  _16
REMARK    9  A    between atoms: _23  and  _24
REMARK   10  A    between atoms: _29  and  _31
REMARK   11  A    between atoms: _31  and  _32
REMARK   12  A    between atoms: _31  and  _34
REMARK   13  A    between atoms: _34  and  _35
REMARK   14  A    between atoms: _38  and  _40
REMARK   15  A    between atoms: _40  and  _41
REMARK   16  A    between atoms: _40  and  _43
REMARK   17  A    between atoms: _43  and  _44
REMARK   18  A    between atoms: _54  and  _56
REMARK   19  A    between atoms: _56  and  _57
REMARK   20  A    between atoms: _56  and  _59
REMARK   21  A    between atoms: _59  and  _60
REMARK   22  A    between atoms: _60  and  _61
REMARK   23  A    between atoms: _61  and  _62
REMARK   24  A    between atoms: _62  and  _63
REMARK   25  A    between atoms: _67  and  _69
REMARK   26  A    between atoms: _69  and  _70
REMARK   27  A    between atoms: _69  and  _72
REMARK   28  A    between atoms: _72  and  _73
REMARK   29  A    between atoms: _79  and  _81
REMARK   30  A    between atoms: _81  and  _82
REMARK   31  A    between atoms: _81  and  _84
REMARK   32  A    between atoms: _84  and  _85
REMARK   33  A    between atoms: _87  and  _89
REMARK   34  A    between atoms: _89  and  _90
REMARK   35  A    between atoms: _89  and  _92
REMARK   36  A    between atoms: _92  and  _93
REMARK   37  A    between atoms: _93  and  _94
REMARK   38  A    between atoms: _97  and  _99
REMARK   39  A    between atoms: _99  and  _100
REMARK   40  A    between atoms: _99  and  _102
REMARK   41  A    between atoms: _102  and  _103
REMARK   42  A    between atoms: _106  and  _108
REMARK   43  A    between atoms: _108  and  _109
REMARK   44  A    between atoms: _112  and  _114
REMARK   45  A    between atoms: _114  and  _115
REMARK   46  A    between atoms: _114  and  _117
REMARK   47  A    between atoms: _117  and  _118
REMARK   48  A    between atoms: _121  and  _123
REMARK   49  A    between atoms: _123  and  _124
REMARK   50  A    between atoms: _123  and  _126
REMARK   51  A    between atoms: _126  and  _127
REMARK   52  A    between atoms: _127  and  _128
REMARK   53  A    between atoms: _128  and  _129
REMARK   54  A    between atoms: _129  and  _130
REMARK   55  A    between atoms: _134  and  _136
REMARK   56  A    between atoms: _136  and  _137
REMARK   57  A    between atoms: _136  and  _139
REMARK   58  A    between atoms: _141  and  _143
REMARK   59  A    between atoms: _143  and  _144
REMARK   60  A    between atoms: _143  and  _146
REMARK   61  A    between atoms: _146  and  _147
REMARK   62  A    between atoms: _150  and  _152
REMARK   63  A    between atoms: _152  and  _153
REMARK   64  A    between atoms: _152  and  _155
REMARK   65  A    between atoms: _155  and  _156
REMARK   66  A    between atoms: _156  and  _157
REMARK   67  A    between atoms: _157  and  _158
REMARK   68  A    between atoms: _158  and  _159
REMARK   69  A    between atoms: _163  and  _165
REMARK   70  A    between atoms: _165  and  _166
REMARK   71  A    between atoms: _165  and  _168
REMARK   72  A    between atoms: _168  and  _169
REMARK   73  A    between atoms: _172  and  _174
REMARK   74  A    between atoms: _174  and  _175
REMARK   75  A    between atoms: _174  and  _177
REMARK   76  A    between atoms: _179  and  _181
REMARK   77  A    between atoms: _181  and  _182
REMARK   78  A    between atoms: _181  and  _184
REMARK   79  A    between atoms: _184  and  _185
REMARK   80  A    between atoms: _188  and  _190
REMARK   81  A    between atoms: _190  and  _191
REMARK   82  A    between atoms: _190  and  _193
REMARK   83  A    between atoms: _193  and  _194
REMARK   84  A    between atoms: _197  and  _199
REMARK   85  A    between atoms: _199  and  _200
REMARK   86  A    between atoms: _199  and  _202
REMARK   87  A    between atoms: _202  and  _203
REMARK   88  A    between atoms: _206  and  _208
REMARK   89  A    between atoms: _208  and  _209
REMARK   90  A    between atoms: _208  and  _211
REMARK   91  A    between atoms: _211  and  _212
REMARK   92  A    between atoms: _215  and  _217
REMARK   93  A    between atoms: _217  and  _218
REMARK   94  A    between atoms: _217  and  _220
REMARK   95  A    between atoms: _220  and  _221
REMARK   96  A    between atoms: _224  and  _226
REMARK   97  A    between atoms: _226  and  _227
REMARK   98  A    between atoms: _226  and  _229
REMARK   99  A    between atoms: _229  and  _230
REMARK  100  A    between atoms: _233  and  _235
REMARK  101  A    between atoms: _235  and  _236
REMARK  102  A    between atoms: _235  and  _238
REMARK  103  A    between atoms: _238  and  _239
REMARK  104  A    between atoms: _239  and  _240
REMARK  105  A    between atoms: _240  and  _241
REMARK  106  A    between atoms: _250  and  _252
REMARK  107  A    between atoms: _252  and  _253
REMARK  108  A    between atoms: _252  and  _255
REMARK  109  A    between atoms: _255  and  _256
REMARK  110  A    between atoms: _259  and  _261
REMARK  111  A    between atoms: _261  and  _262
REMARK  112  A    between atoms: _261  and  _264
REMARK  113  A    between atoms: _266  and  _268
REMARK  114  A    between atoms: _268  and  _269
REMARK  115  A    between atoms: _268  and  _271
REMARK  116  A    between atoms: _271  and  _272
REMARK  117  A    between atoms: _275  and  _277
REMARK  118  A    between atoms: _277  and  _278
REMARK  119  A    between atoms: _277  and  _280
REMARK  120  A    between atoms: _280  and  _281
REMARK  121  A    between atoms: _281  and  _282
REMARK  122  A    between atoms: _282  and  _283
REMARK  123  A    between atoms: _292  and  _294
REMARK  124  A    between atoms: _294  and  _295
REMARK  125  A    between atoms: _294  and  _297
REMARK  126  A    between atoms: _297  and  _298
REMARK  127  A    between atoms: _298  and  _299
REMARK  128  A    between atoms: _301  and  _303
REMARK  129  A    between atoms: _303  and  _304
REMARK  130  A    between atoms: _303  and  _306
REMARK  131  A    between atoms: _306  and  _307
REMARK  132  A    between atoms: _310  and  _312
REMARK  133  A    between atoms: _312  and  _313
REMARK  134  A    between atoms: _312  and  _315
REMARK  135  A    between atoms: _315  and  _316
REMARK  136  A    between atoms: _322  and  _324
REMARK  137  A    between atoms: _324  and  _325
REMARK  138  A    between atoms: _324  and  _327
REMARK  139  A    between atoms: _327  and  _328
REMARK  140  A    between atoms: _330  and  _332
REMARK  141  A    between atoms: _332  and  _333
REMARK  142  A    between atoms: _332  and  _335
REMARK  143  A    between atoms: _335  and  _336
REMARK  144  A    between atoms: _339  and  _341
REMARK  145  A    between atoms: _341  and  _342
REMARK  146  A    between atoms: _344  and  _346
REMARK  147  A    between atoms: _346  and  _347
REMARK  148  A    between atoms: _346  and  _349
REMARK  149  A    between atoms: _349  and  _350
REMARK  150  A    between atoms: _353  and  _355
REMARK  151  A    between atoms: _355  and  _356
REMARK  152  A    between atoms: _355  and  _358
REMARK  153  A    between atoms: _358  and  _359
REMARK  154  A    between atoms: _359  and  _360
REMARK  155  A    between atoms: _362  and  _364
REMARK  156  A    between atoms: _364  and  _365
REMARK  157  A    between atoms: _364  and  _367
REMARK  158  A    between atoms: _367  and  _368
REMARK  159  A    between atoms: _373  and  _375
REMARK  160  A    between atoms: _375  and  _376
REMARK  161  A    between atoms: _379  and  _381
REMARK  162  A    between atoms: _381  and  _382
REMARK  163  A    between atoms: _384  and  _386
REMARK  164  A    between atoms: _386  and  _387
REMARK  165  A    between atoms: _386  and  _389
REMARK  166  A    between atoms: _389  and  _390
REMARK  167  A    between atoms: _396  and  _398
REMARK  168  A    between atoms: _398  and  _399
REMARK  169  A    between atoms: _401  and  _403
REMARK  170  A    between atoms: _403  and  _404
REMARK  171  A    between atoms: _403  and  _406
REMARK  172  A    between atoms: _406  and  _407
REMARK  173  A    between atoms: _410  and  _412
REMARK  174  A    between atoms: _412  and  _413
REMARK  175  A    between atoms: _412  and  _415
REMARK  176  A    between atoms: _415  and  _416
REMARK  177  A    between atoms: _419  and  _421
REMARK  178  A    between atoms: _421  and  _422
REMARK  179  A    between atoms: _421  and  _424
REMARK  180  A    between atoms: _424  and  _425
REMARK  181  A    between atoms: _428  and  _430
REMARK  182  A    between atoms: _430  and  _431
REMARK  183  A    between atoms: _430  and  _433
REMARK  184  A    between atoms: _436  and  _438
REMARK  185  A    between atoms: _438  and  _439
REMARK  186  A    between atoms: _438  and  _441
REMARK  187  A    between atoms: _441  and  _442
REMARK  188  A    between atoms: _445  and  _447
REMARK  189  A    between atoms: _447  and  _448
REMARK  190  A    between atoms: _447  and  _450
REMARK  191  A    between atoms: _450  and  _451
REMARK  192  A    between atoms: _453  and  _455
REMARK  193  A    between atoms: _455  and  _456
REMARK  194  A    between atoms: _459  and  _461
REMARK  195  A    between atoms: _461  and  _462
REMARK  196  A    between atoms: _461  and  _464
REMARK  197  A    between atoms: _464  and  _465
REMARK  198  A    between atoms: _465  and  _466
REMARK  199  A    between atoms: _466  and  _467
REMARK  200  A    between atoms: _467  and  _468
REMARK  201  A    between atoms: _472  and  _474
REMARK  202  A    between atoms: _474  and  _475
REMARK  203  A    between atoms: _477  and  _479
REMARK  204  A    between atoms: _479  and  _480
REMARK  205  A    between atoms: _483  and  _485
REMARK  206  A    between atoms: _485  and  _486
REMARK  207  A    between atoms: _485  and  _488
REMARK  208  A    between atoms: _488  and  _489
REMARK  209  A    between atoms: _489  and  _490
REMARK  210  A    between atoms: _493  and  _495
REMARK  211  A    between atoms: _495  and  _496
REMARK  212  A    between atoms: _495  and  _498
REMARK  213  A    between atoms: _498  and  _499
REMARK  214  A    between atoms: _499  and  _500
REMARK  215  A    between atoms: _500  and  _501
REMARK  216  A    between atoms: _510  and  _512
REMARK  217  A    between atoms: _512  and  _513
REMARK  218  A    between atoms: _512  and  _515
REMARK  219  A    between atoms: _518  and  _520
REMARK  220  A    between atoms: _520  and  _521
REMARK  221  A    between atoms: _520  and  _523
REMARK  222  A    between atoms: _523  and  _524
REMARK  223  A    between atoms: _527  and  _529
REMARK  224  A    between atoms: _529  and  _530
REMARK  225  A    between atoms: _529  and  _532
REMARK  226  A    between atoms: _532  and  _533
REMARK  227  A    between atoms: _536  and  _538
REMARK  228  A    between atoms: _538  and  _539
REMARK  229  A    between atoms: _538  and  _541
REMARK  230  A    between atoms: _541  and  _542
REMARK  231  A    between atoms: _545  and  _547
REMARK  232  A    between atoms: _547  and  _548
REMARK  233  A    between atoms: _547  and  _550
REMARK  234  A    between atoms: _550  and  _551
REMARK  235  A    between atoms: _551  and  _552
REMARK  236  A    between atoms: _552  and  _553
REMARK  237  A    between atoms: _553  and  _554
REMARK  238  A    between atoms: _558  and  _560
REMARK  239  A    between atoms: _560  and  _561
REMARK  240  A    between atoms: _560  and  _563
REMARK  241  A    between atoms: _563  and  _564
REMARK  242  A    between atoms: _564  and  _565
REMARK  243  A    between atoms: _568  and  _569
REMARK  244  A    between atoms: _574  and  _576
REMARK  245  A    between atoms: _576  and  _577
REMARK  246  A    between atoms: _576  and  _579
REMARK  247  A    between atoms: _579  and  _580
REMARK  248  A    between atoms: _583  and  _585
REMARK  249  A    between atoms: _585  and  _586
REMARK  250  A    between atoms: _585  and  _588
REMARK  251  A    between atoms: _588  and  _589
REMARK  252  A    between atoms: _589  and  _590
REMARK  253  A    between atoms: _595  and  _597
REMARK  254  A    between atoms: _597  and  _598
REMARK  255  A    between atoms: _597  and  _600
REMARK  256  A    between atoms: _600  and  _601
REMARK  257  A    between atoms: _601  and  _602
REMARK  258  A    between atoms: _604  and  _606
REMARK  259  A    between atoms: _606  and  _607
REMARK  260  A    between atoms: _606  and  _609
REMARK  261  A    between atoms: _609  and  _610
REMARK                            x       y       z     vdW  Elec       q    Type
REMARK                         _______ _______ _______ _____ _____    ______ ____
ROOT
ATOM      1  CA  PHE A   3      42.313  18.367  93.013  0.00  0.00    +0.153 C 
ENDROOT
BRANCH   1   3
ATOM      2  C   GLY A   2      43.334  20.364  92.101  0.00  0.00    +0.243 C 
ATOM      3  N   PHE A   3      42.228  19.732  92.490  0.00  0.00    -0.297 N 
ATOM      4  H   PHE A   3      41.305  20.207  92.422  0.00  0.00    +0.150 HD
ATOM      5  O   GLY A   2      44.449  19.838  92.168  0.00  0.00    -0.273 OA
BRANCH   2   6
ATOM      6  CA  GLY A   2      43.204  21.781  91.569  0.00  0.00    +0.176 C 
BRANCH   6   9
ATOM      7  C   ALA A   1      41.476  23.449  91.369  0.00  0.00    +0.238 C 
ATOM      8  O   ALA A   1      42.186  24.286  91.925  0.00  0.00    -0.274 OA
ATOM      9  N   GLY A   2      41.877  22.199  91.152  0.00  0.00    -0.296 N 
ATOM     10  H   GLY A   2      41.241  21.522  90.684  0.00  0.00    +0.150 HD
BRANCH   7  11
ATOM     11  CA  ALA A   1      40.066  23.814  90.909  0.00  0.00    +0.145 C 
ATOM     12  CB  ALA A   1      39.166  24.001  92.110  0.00  0.00    +0.028 C 
BRANCH  11  13
ATOM     13  N   ALA A   1      39.511  22.802  90.024  0.00  0.00    -0.238 NA
ATOM     14  H   ALA A   1      38.815  22.122  90.392  0.00  0.00    +0.142 HD
ENDBRANCH  11  13
ENDBRANCH   7  11
ENDBRANCH   6   9
ENDBRANCH   2   6
ENDBRANCH   1   3
BRANCH   1  15
ATOM     15  C   PHE A   3      42.779  17.374  91.947  0.00  0.00    +0.241 C 
ATOM     16  O   PHE A   3      43.431  16.373  92.256  0.00  0.00    -0.273 OA
ATOM     17  N   GLY A   4      42.443  17.660  90.695  0.00  0.00    -0.296 N 
ATOM     18  H   GLY A   4      41.873  18.508  90.501  0.00  0.00    +0.150 HD
BRANCH  17  19
ATOM     19  CA  GLY A   4      42.856  16.812  89.590  0.00  0.00    +0.163 C 
BRANCH  19  20
ATOM     20  C   GLY A   4      42.697  15.317  89.788  0.00  0.00    +0.229 C 
ATOM     21  O   GLY A   4      41.623  14.854  90.168  0.00  0.00    -0.286 OA
ENDBRANCH  19  20
ENDBRANCH  17  19
ENDBRANCH   1  15
BRANCH   1  22
ATOM     22  CB  PHE A   3      40.972  17.925  93.608  0.00  0.00    +0.055 C 
BRANCH  22  23
ATOM     23  CG  PHE A   3      40.689  18.518  94.963  0.00  0.00    -0.020 A 
ATOM     24  CD2 PHE A   3      40.963  17.796  96.118  0.00  0.00    -0.004 A 
ATOM     25  CE2 PHE A   3      40.729  18.347  97.379  0.00  0.00    -0.000 A 
ATOM     26  CZ  PHE A   3      40.220  19.640  97.483  0.00  0.00    -0.000 A 
ATOM     27  CE1 PHE A   3      39.945  20.366  96.335  0.00  0.00    -0.000 A 
ATOM     28  CD1 PHE A   3      40.182  19.807  95.085  0.00  0.00    -0.004 A 
ENDBRANCH  22  23
ENDBRANCH   1  22
TORSDOF 10
REMARK  Name = ../refined-set-2016/1xap/1xap_pocket.pdb
REMARK  261 active torsions:
REMARK  status: ('A' for Active; 'I' for Inactive)
REMARK    1  A    between atoms: _1  and  _3
REMARK    2  A    between atoms: _3  and  _4
REMARK    3  A    between atoms: _3  and  _6
REMARK    4  A    between atoms: _6  and  _7
REMARK    5  A    between atoms: _10  and  _12
REMARK    6  A    between atoms: _12  and  _13
REMARK    7  A    between atoms: _12  and  _15
REMARK    8  A    between atoms: _15  and  _16
REMARK    9  A    between atoms: _23  and  _24
REMARK   10  A    between atoms: _29  and  _31
REMARK   11  A    between atoms: _31  and  _32
REMARK   12  A    between atoms: _31  and  _34
REMARK   13  A    between atoms: _34  and  _35
REMARK   14  A    between atoms: _38  and  _40
REMARK   15  A    between atoms: _40  and  _41
REMARK   16  A    between atoms: _40  and  _43
REMARK   17  A    between atoms: _43  and  _44
REMARK   18  A    between atoms: _54  and  _56
REMARK   19  A    between atoms: _56  and  _57
REMARK   20  A    between atoms: _56  and  _59
REMARK   21  A    between atoms: _59  and  _60
REMARK   22  A    between atoms: _60  and  _61
REMARK   23  A    between atoms: _61  and  _62
REMARK   24  A    between atoms: _62  and  _63
REMARK   25  A    between atoms: _67  and  _69
REMARK   26  A    between atoms: _69  and  _70
REMARK   27  A    between atoms: _69  and  _72
REMARK   28  A    between atoms: _72  and  _73
REMARK   29  A    between atoms: _79  and  _81
REMARK   30  A    between atoms: _81  and  _82
REMARK   31  A    between atoms: _81  and  _84
REMARK   32  A    between atoms: _84  and  _85
REMARK   33  A    between atoms: _87  and  _89
REMARK   34  A    between atoms: _89  and  _90
REMARK   35  A    between atoms: _89  and  _92
REMARK   36  A    between atoms: _92  and  _93
REMARK   37  A    between atoms: _93  and  _94
REMARK   38  A    between atoms: _97  and  _99
REMARK   39  A    between atoms: _99  and  _100
REMARK   40  A    between atoms: _99  and  _102
REMARK   41  A    between atoms: _102  and  _103
REMARK   42  A    between atoms: _106  and  _108
REMARK   43  A    between atoms: _108  and  _109
REMARK   44  A    between atoms: _112  and  _114
REMARK   45  A    between atoms: _114  and  _115
REMARK   46  A    between atoms: _114  and  _117
REMARK   47  A    between atoms: _117  and  _118
REMARK   48  A    between atoms: _121  and  _123
REMARK   49  A    between atoms: _123  and  _124
REMARK   50  A    between atoms: _123  and  _126
REMARK   51  A    between atoms: _126  and  _127
REMARK   52  A    between atoms: _127  and  _128
REMARK   53  A    between atoms: _128  and  _129
REMARK   54  A    between atoms: _129  and  _130
REMARK   55  A    between atoms: _134  and  _136
REMARK   56  A    between atoms: _136  and  _137
REMARK   57  A    between atoms: _136  and  _139
REMARK   58  A    between atoms: _141  and  _143
REMARK   59  A    between atoms: _143  and  _144
REMARK   60  A    between atoms: _143  and  _146
REMARK   61  A    between atoms: _146  and  _147
REMARK   62  A    between atoms: _150  and  _152
REMARK   63  A    between atoms: _152  and  _153
REMARK   64  A    between atoms: _152  and  _155
REMARK   65  A    between atoms: _155  and  _156
REMARK   66  A    between atoms: _156  and  _157
REMARK   67  A    between atoms: _157  and  _158
REMARK   68  A    between atoms: _158  and  _159
REMARK   69  A    between atoms: _163  and  _165
REMARK   70  A    between atoms: _165  and  _166
REMARK   71  A    between atoms: _165  and  _168
REMARK   72  A    between atoms: _168  and  _169
REMARK   73  A    between atoms: _172  and  _174
REMARK   74  A    between atoms: _174  and  _175
REMARK   75  A    between atoms: _174  and  _177
REMARK   76  A    between atoms: _179  and  _181
REMARK   77  A    between atoms: _181  and  _182
REMARK   78  A    between atoms: _181  and  _184
REMARK   79  A    between atoms: _184  and  _185
REMARK   80  A    between atoms: _188  and  _190
REMARK   81  A    between atoms: _190  and  _191
REMARK   82  A    between atoms: _190  and  _193
REMARK   83  A    between atoms: _193  and  _194
REMARK   84  A    between atoms: _197  and  _199
REMARK   85  A    between atoms: _199  and  _200
REMARK   86  A    between atoms: _199  and  _202
REMARK   87  A    between atoms: _202  and  _203
REMARK   88  A    between atoms: _206  and  _208
REMARK   89  A    between atoms: _208  and  _209
REMARK   90  A    between atoms: _208  and  _211
REMARK   91  A    between atoms: _211  and  _212
REMARK   92  A    between atoms: _215  and  _217
REMARK   93  A    between atoms: _217  and  _218
REMARK   94  A    between atoms: _217  and  _220
REMARK   95  A    between atoms: _220  and  _221
REMARK   96  A    between atoms: _224  and  _226
REMARK   97  A    between atoms: _226  and  _227
REMARK   98  A    between atoms: _226  and  _229
REMARK   99  A    between atoms: _229  and  _230
REMARK  100  A    between atoms: _233  and  _235
REMARK  101  A    between atoms: _235  and  _236
REMARK  102  A    between atoms: _235  and  _238
REMARK  103  A    between atoms: _238  and  _239
REMARK  104  A    between atoms: _239  and  _240
REMARK  105  A    between atoms: _240  and  _241
REMARK  106  A    between atoms: _250  and  _252
REMARK  107  A    between atoms: _252  and  _253
REMARK  108  A    between atoms: _252  and  _255
REMARK  109  A    between atoms: _255  and  _256
REMARK  110  A    between atoms: _259  and  _261
REMARK  111  A    between atoms: _261  and  _262
REMARK  112  A    between atoms: _261  and  _264
REMARK  113  A    between atoms: _266  and  _268
REMARK  114  A    between atoms: _268  and  _269
REMARK  115  A    between atoms: _268  and  _271
REMARK  116  A    between atoms: _271  and  _272
REMARK  117  A    between atoms: _275  and  _277
REMARK  118  A    between atoms: _277  and  _278
REMARK  119  A    between atoms: _277  and  _280
REMARK  120  A    between atoms: _280  and  _281
REMARK  121  A    between atoms: _281  and  _282
REMARK  122  A    between atoms: _282  and  _283
REMARK  123  A    between atoms: _292  and  _294
REMARK  124  A    between atoms: _294  and  _295
REMARK  125  A    between atoms: _294  and  _297
REMARK  126  A    between atoms: _297  and  _298
REMARK  127  A    between atoms: _298  and  _299
REMARK  128  A    between atoms: _301  and  _303
REMARK  129  A    between atoms: _303  and  _304
REMARK  130  A    between atoms: _303  and  _306
REMARK  131  A    between atoms: _306  and  _307
REMARK  132  A    between atoms: _310  and  _312
REMARK  133  A    between atoms: _312  and  _313
REMARK  134  A    between atoms: _312  and  _315
REMARK  135  A    between atoms: _315  and  _316
REMARK  136  A    between atoms: _322  and  _324
REMARK  137  A    between atoms: _324  and  _325
REMARK  138  A    between atoms: _324  and  _327
REMARK  139  A    between atoms: _327  and  _328
REMARK  140  A    between atoms: _330  and  _332
REMARK  141  A    between atoms: _332  and  _333
REMARK  142  A    between atoms: _332  and  _335
REMARK  143  A    between atoms: _335  and  _336
REMARK  144  A    between atoms: _339  and  _341
REMARK  145  A    between atoms: _341  and  _342
REMARK  146  A    between atoms: _344  and  _346
REMARK  147  A    between atoms: _346  and  _347
REMARK  148  A    between atoms: _346  and  _349
REMARK  149  A    between atoms: _349  and  _350
REMARK  150  A    between atoms: _353  and  _355
REMARK  151  A    between atoms: _355  and  _356
REMARK  152  A    between atoms: _355  and  _358
REMARK  153  A    between atoms: _358  and  _359
REMARK  154  A    between atoms: _359  and  _360
REMARK  155  A    between atoms: _362  and  _364
REMARK  156  A    between atoms: _364  and  _365
REMARK  157  A    between atoms: _364  and  _367
REMARK  158  A    between atoms: _367  and  _368
REMARK  159  A    between atoms: _373  and  _375
REMARK  160  A    between atoms: _375  and  _376
REMARK  161  A    between atoms: _379  and  _381
REMARK  162  A    between atoms: _381  and  _382
REMARK  163  A    between atoms: _384  and  _386
REMARK  164  A    between atoms: _386  and  _387
REMARK  165  A    between atoms: _386  and  _389
REMARK  166  A    between atoms: _389  and  _390
REMARK  167  A    between atoms: _396  and  _398
REMARK  168  A    between atoms: _398  and  _399
REMARK  169  A    between atoms: _401  and  _403
REMARK  170  A    between atoms: _403  and  _404
REMARK  171  A    between atoms: _403  and  _406
REMARK  172  A    between atoms: _406  and  _407
REMARK  173  A    between atoms: _410  and  _412
REMARK  174  A    between atoms: _412  and  _413
REMARK  175  A    between atoms: _412  and  _415
REMARK  176  A    between atoms: _415  and  _416
REMARK  177  A    between atoms: _419  and  _421
REMARK  178  A    between atoms: _421  and  _422
REMARK  179  A    between atoms: _421  and  _424
REMARK  180  A    between atoms: _424  and  _425
REMARK  181  A    between atoms: _428  and  _430
REMARK  182  A    between atoms: _430  and  _431
REMARK  183  A    between atoms: _430  and  _433
REMARK  184  A    between atoms: _436  and  _438
REMARK  185  A    between atoms: _438  and  _439
REMARK  186  A    between atoms: _438  and  _441
REMARK  187  A    between atoms: _441  and  _442
REMARK  188  A    between atoms: _445  and  _447
REMARK  189  A    between atoms: _447  and  _448
REMARK  190  A    between atoms: _447  and  _450
REMARK  191  A    between atoms: _450  and  _451
REMARK  192  A    between atoms: _453  and  _455
REMARK  193  A    between atoms: _455  and  _456
REMARK  194  A    between atoms: _459  and  _461
REMARK  195  A    between atoms: _461  and  _462
REMARK  196  A    between atoms: _461  and  _464
REMARK  197  A    between atoms: _464  and  _465
REMARK  198  A    between atoms: _465  and  _466
REMARK  199  A    between atoms: _466  and  _467
REMARK  200  A    between atoms: _467  and  _468
REMARK  201  A    between atoms: _472  and  _474
REMARK  202  A    between atoms: _474  and  _475
REMARK  203  A    between atoms: _477  and  _479
REMARK  204  A    between atoms: _479  and  _480
REMARK  205  A    between atoms: _483  and  _485
REMARK  206  A    between atoms: _485  and  _486
REMARK  207  A    between atoms: _485  and  _488
REMARK  208  A    between atoms: _488  and  _489
REMARK  209  A    between atoms: _489  and  _490
REMARK  210  A    between atoms: _493  and  _495
REMARK  211  A    between atoms: _495  and  _496
REMARK  212  A    between atoms: _495  and  _498
REMARK  213  A    between atoms: _498  and  _499
REMARK  214  A    between atoms: _499  and  _500
REMARK  215  A    between atoms: _500  and  _501
REMARK  216  A    between atoms: _510  and  _512
REMARK  217  A    between atoms: _512  and  _513
REMARK  218  A    between atoms: _512  and  _515
REMARK  219  A    between atoms: _518  and  _520
REMARK  220  A    between atoms: _520  and  _521
REMARK  221  A    between atoms: _520  and  _523
REMARK  222  A    between atoms: _523  and  _524
REMARK  223  A    between atoms: _527  and  _529
REMARK  224  A    between atoms: _529  and  _530
REMARK  225  A    between atoms: _529  and  _532
REMARK  226  A    between atoms: _532  and  _533
REMARK  227  A    between atoms: _536  and  _538
REMARK  228  A    between atoms: _538  and  _539
REMARK  229  A    between atoms: _538  and  _541
REMARK  230  A    between atoms: _541  and  _542
REMARK  231  A    between atoms: _545  and  _547
REMARK  232  A    between atoms: _547  and  _548
REMARK  233  A    between atoms: _547  and  _550
REMARK  234  A    between atoms: _550  and  _551
REMARK  235  A    between atoms: _551  and  _552
REMARK  236  A    between atoms: _552  and  _553
REMARK  237  A    between atoms: _553  and  _554
REMARK  238  A    between atoms: _558  and  _560
REMARK  239  A    between atoms: _560  and  _561
REMARK  240  A    between atoms: _560  and  _563
REMARK  241  A    between atoms: _563  and  _564
REMARK  242  A    between atoms: _564  and  _565
REMARK  243  A    between atoms: _568  and  _569
REMARK  244  A    between atoms: _574  and  _576
REMARK  245  A    between atoms: _576  and  _577
REMARK  246  A    between atoms: _576  and  _579
REMARK  247  A    between atoms: _579  and  _580
REMARK  248  A    between atoms: _583  and  _585
REMARK  249  A    between atoms: _585  and  _586
REMARK  250  A    between atoms: _585  and  _588
REMARK  251  A    between atoms: _588  and  _589
REMARK  252  A    between atoms: _589  and  _590
REMARK  253  A    between atoms: _595  and  _597
REMARK  254  A    between atoms: _597  and  _598
REMARK  255  A    between atoms: _597  and  _600
REMARK  256  A    between atoms: _600  and  _601
REMARK  257  A    between atoms: _601  and  _602
REMARK  258  A    between atoms: _604  and  _606
REMARK  259  A    between atoms: _606  and  _607
REMARK  260  A    between atoms: _606  and  _609
REMARK  261  A    between atoms: _609  and  _610
REMARK                            x       y       z     vdW  Elec       q    Type
REMARK                         _______ _______ _______ _____ _____    ______ ____
ROOT
ATOM      1  C   LEU A   1      41.594  13.309  93.775  0.00  0.00    +0.238 C 
ATOM      2  O   LEU A   1      41.161  12.977  94.870  0.00  0.00    -0.274 OA
ATOM      3  N   THR A   2      40.832  13.848  92.831  0.00  0.00    -0.296 N 
ATOM      4  H   THR A   2      41.254  14.062  91.905  0.00  0.00    +0.150 HD
ENDROOT
BRANCH   1   5
ATOM      5  CA  LEU A   1      43.074  13.109  93.431  0.00  0.00    +0.145 C 
BRANCH   5   6
ATOM      6  N   LEU A   1      43.367  13.494  92.055  0.00  0.00    -0.238 NA
ATOM      7  H   LEU A   1      43.517  14.496  91.822  0.00  0.00    +0.142 HD
ENDBRANCH   5   6
BRANCH   5   8
ATOM      8  CB  LEU A   1      43.912  13.940  94.399  0.00  0.00    +0.026 C 
BRANCH   8   9
ATOM      9  CG  LEU A   1      45.438  13.880  94.256  0.00  0.00    +0.002 C 
ATOM     10  CD2 LEU A   1      46.076  14.723  95.381  0.00  0.00    +0.000 C 
ATOM     11  CD1 LEU A   1      45.910  12.433  94.318  0.00  0.00    +0.000 C 
ENDBRANCH   8   9
ENDBRANCH   5   8
ENDBRANCH   1   5
BRANCH   3  12
ATOM     12  CA  THR A   2      39.419  14.151  93.052  0.00  0.00    +0.164 C 
BRANCH  12  13
ATOM     13  C   THR A   2      38.535  12.989  93.495  0.00  0.00    +0.229 C 
ATOM     14  O   THR A   2      37.860  13.071  94.518  0.00  0.00    -0.286 OA
ENDBRANCH  12  13
BRANCH  12  15
ATOM     15  CB  THR A   2      38.782  14.786  91.790  0.00  0.00    +0.136 C 
ATOM     16  CG2 THR A   2      37.405  15.354  92.113  0.00  0.00    +0.034 C 
BRANCH  15  17
ATOM     17  OG1 THR A   2      39.608  15.858  91.321  0.00  0.00    -0.382 OA
ATOM     18  HG1 THR A   2      40.506  15.507  91.095  0.00  0.00    +0.210 HD
ENDBRANCH  15  17
ENDBRANCH  12  15
ENDBRANCH   3  12
TORSDOF 8
REMARK  Name = ../refined-set-2016/1xap/1xap_pocket.pdb
REMARK  261 active torsions:
REMARK  status: ('A' for Active; 'I' for Inactive)
REMARK    1  A    between atoms: _1  and  _3
REMARK    2  A    between atoms: _3  and  _4
REMARK    3  A    between atoms: _3  and  _6
REMARK    4  A    between atoms: _6  and  _7
REMARK    5  A    between atoms: _10  and  _12
REMARK    6  A    between atoms: _12  and  _13
REMARK    7  A    between atoms: _12  and  _15
REMARK    8  A    between atoms: _15  and  _16
REMARK    9  A    between atoms: _23  and  _24
REMARK   10  A    between atoms: _29  and  _31
REMARK   11  A    between atoms: _31  and  _32
REMARK   12  A    between atoms: _31  and  _34
REMARK   13  A    between atoms: _34  and  _35
REMARK   14  A    between atoms: _38  and  _40
REMARK   15  A    between atoms: _40  and  _41
REMARK   16  A    between atoms: _40  and  _43
REMARK   17  A    between atoms: _43  and  _44
REMARK   18  A    between atoms: _54  and  _56
REMARK   19  A    between atoms: _56  and  _57
REMARK   20  A    between atoms: _56  and  _59
REMARK   21  A    between atoms: _59  and  _60
REMARK   22  A    between atoms: _60  and  _61
REMARK   23  A    between atoms: _61  and  _62
REMARK   24  A    between atoms: _62  and  _63
REMARK   25  A    between atoms: _67  and  _69
REMARK   26  A    between atoms: _69  and  _70
REMARK   27  A    between atoms: _69  and  _72
REMARK   28  A    between atoms: _72  and  _73
REMARK   29  A    between atoms: _79  and  _81
REMARK   30  A    between atoms: _81  and  _82
REMARK   31  A    between atoms: _81  and  _84
REMARK   32  A    between atoms: _84  and  _85
REMARK   33  A    between atoms: _87  and  _89
REMARK   34  A    between atoms: _89  and  _90
REMARK   35  A    between atoms: _89  and  _92
REMARK   36  A    between atoms: _92  and  _93
REMARK   37  A    between atoms: _93  and  _94
REMARK   38  A    between atoms: _97  and  _99
REMARK   39  A    between atoms: _99  and  _100
REMARK   40  A    between atoms: _99  and  _102
REMARK   41  A    between atoms: _102  and  _103
REMARK   42  A    between atoms: _106  and  _108
REMARK   43  A    between atoms: _108  and  _109
REMARK   44  A    between atoms: _112  and  _114
REMARK   45  A    between atoms: _114  and  _115
REMARK   46  A    between atoms: _114  and  _117
REMARK   47  A    between atoms: _117  and  _118
REMARK   48  A    between atoms: _121  and  _123
REMARK   49  A    between atoms: _123  and  _124
REMARK   50  A    between atoms: _123  and  _126
REMARK   51  A    between atoms: _126  and  _127
REMARK   52  A    between atoms: _127  and  _128
REMARK   53  A    between atoms: _128  and  _129
REMARK   54  A    between atoms: _129  and  _130
REMARK   55  A    between atoms: _134  and  _136
REMARK   56  A    between atoms: _136  and  _137
REMARK   57  A    between atoms: _136  and  _139
REMARK   58  A    between atoms: _141  and  _143
REMARK   59  A    between atoms: _143  and  _144
REMARK   60  A    between atoms: _143  and  _146
REMARK   61  A    between atoms: _146  and  _147
REMARK   62  A    between atoms: _150  and  _152
REMARK   63  A    between atoms: _152  and  _153
REMARK   64  A    between atoms: _152  and  _155
REMARK   65  A    between atoms: _155  and  _156
REMARK   66  A    between atoms: _156  and  _157
REMARK   67  A    between atoms: _157  and  _158
REMARK   68  A    between atoms: _158  and  _159
REMARK   69  A    between atoms: _163  and  _165
REMARK   70  A    between atoms: _165  and  _166
REMARK   71  A    between atoms: _165  and  _168
REMARK   72  A    between atoms: _168  and  _169
REMARK   73  A    between atoms: _172  and  _174
REMARK   74  A    between atoms: _174  and  _175
REMARK   75  A    between atoms: _174  and  _177
REMARK   76  A    between atoms: _179  and  _181
REMARK   77  A    between atoms: _181  and  _182
REMARK   78  A    between atoms: _181  and  _184
REMARK   79  A    between atoms: _184  and  _185
REMARK   80  A    between atoms: _188  and  _190
REMARK   81  A    between atoms: _190  and  _191
REMARK   82  A    between atoms: _190  and  _193
REMARK   83  A    between atoms: _193  and  _194
REMARK   84  A    between atoms: _197  and  _199
REMARK   85  A    between atoms: _199  and  _200
REMARK   86  A    between atoms: _199  and  _202
REMARK   87  A    between atoms: _202  and  _203
REMARK   88  A    between atoms: _206  and  _208
REMARK   89  A    between atoms: _208  and  _209
REMARK   90  A    between atoms: _208  and  _211
REMARK   91  A    between atoms: _211  and  _212
REMARK   92  A    between atoms: _215  and  _217
REMARK   93  A    between atoms: _217  and  _218
REMARK   94  A    between atoms: _217  and  _220
REMARK   95  A    between atoms: _220  and  _221
REMARK   96  A    between atoms: _224  and  _226
REMARK   97  A    between atoms: _226  and  _227
REMARK   98  A    between atoms: _226  and  _229
REMARK   99  A    between atoms: _229  and  _230
REMARK  100  A    between atoms: _233  and  _235
REMARK  101  A    between atoms: _235  and  _236
REMARK  102  A    between atoms: _235  and  _238
REMARK  103  A    between atoms: _238  and  _239
REMARK  104  A    between atoms: _239  and  _240
REMARK  105  A    between atoms: _240  and  _241
REMARK  106  A    between atoms: _250  and  _252
REMARK  107  A    between atoms: _252  and  _253
REMARK  108  A    between atoms: _252  and  _255
REMARK  109  A    between atoms: _255  and  _256
REMARK  110  A    between atoms: _259  and  _261
REMARK  111  A    between atoms: _261  and  _262
REMARK  112  A    between atoms: _261  and  _264
REMARK  113  A    between atoms: _266  and  _268
REMARK  114  A    between atoms: _268  and  _269
REMARK  115  A    between atoms: _268  and  _271
REMARK  116  A    between atoms: _271  and  _272
REMARK  117  A    between atoms: _275  and  _277
REMARK  118  A    between atoms: _277  and  _278
REMARK  119  A    between atoms: _277  and  _280
REMARK  120  A    between atoms: _280  and  _281
REMARK  121  A    between atoms: _281  and  _282
REMARK  122  A    between atoms: _282  and  _283
REMARK  123  A    between atoms: _292  and  _294
REMARK  124  A    between atoms: _294  and  _295
REMARK  125  A    between atoms: _294  and  _297
REMARK  126  A    between atoms: _297  and  _298
REMARK  127  A    between atoms: _298  and  _299
REMARK  128  A    between atoms: _301  and  _303
REMARK  129  A    between atoms: _303  and  _304
REMARK  130  A    between atoms: _303  and  _306
REMARK  131  A    between atoms: _306  and  _307
REMARK  132  A    between atoms: _310  and  _312
REMARK  133  A    between atoms: _312  and  _313
REMARK  134  A    between atoms: _312  and  _315
REMARK  135  A    between atoms: _315  and  _316
REMARK  136  A    between atoms: _322  and  _324
REMARK  137  A    between atoms: _324  and  _325
REMARK  138  A    between atoms: _324  and  _327
REMARK  139  A    between atoms: _327  and  _328
REMARK  140  A    between atoms: _330  and  _332
REMARK  141  A    between atoms: _332  and  _333
REMARK  142  A    between atoms: _332  and  _335
REMARK  143  A    between atoms: _335  and  _336
REMARK  144  A    between atoms: _339  and  _341
REMARK  145  A    between atoms: _341  and  _342
REMARK  146  A    between atoms: _344  and  _346
REMARK  147  A    between atoms: _346  and  _347
REMARK  148  A    between atoms: _346  and  _349
REMARK  149  A    between atoms: _349  and  _350
REMARK  150  A    between atoms: _353  and  _355
REMARK  151  A    between atoms: _355  and  _356
REMARK  152  A    between atoms: _355  and  _358
REMARK  153  A    between atoms: _358  and  _359
REMARK  154  A    between atoms: _359  and  _360
REMARK  155  A    between atoms: _362  and  _364
REMARK  156  A    between atoms: _364  and  _365
REMARK  157  A    between atoms: _364  and  _367
REMARK  158  A    between atoms: _367  and  _368
REMARK  159  A    between atoms: _373  and  _375
REMARK  160  A    between atoms: _375  and  _376
REMARK  161  A    between atoms: _379  and  _381
REMARK  162  A    between atoms: _381  and  _382
REMARK  163  A    between atoms: _384  and  _386
REMARK  164  A    between atoms: _386  and  _387
REMARK  165  A    between atoms: _386  and  _389
REMARK  166  A    between atoms: _389  and  _390
REMARK  167  A    between atoms: _396  and  _398
REMARK  168  A    between atoms: _398  and  _399
REMARK  169  A    between atoms: _401  and  _403
REMARK  170  A    between atoms: _403  and  _404
REMARK  171  A    between atoms: _403  and  _406
REMARK  172  A    between atoms: _406  and  _407
REMARK  173  A    between atoms: _410  and  _412
REMARK  174  A    between atoms: _412  and  _413
REMARK  175  A    between atoms: _412  and  _415
REMARK  176  A    between atoms: _415  and  _416
REMARK  177  A    between atoms: _419  and  _421
REMARK  178  A    between atoms: _421  and  _422
REMARK  179  A    between atoms: _421  and  _424
REMARK  180  A    between atoms: _424  and  _425
REMARK  181  A    between atoms: _428  and  _430
REMARK  182  A    between atoms: _430  and  _431
REMARK  183  A    between atoms: _430  and  _433
REMARK  184  A    between atoms: _436  and  _438
REMARK  185  A    between atoms: _438  and  _439
REMARK  186  A    between atoms: _438  and  _441
REMARK  187  A    between atoms: _441  and  _442
REMARK  188  A    between atoms: _445  and  _447
REMARK  189  A    between atoms: _447  and  _448
REMARK  190  A    between atoms: _447  and  _450
REMARK  191  A    between atoms: _450  and  _451
REMARK  192  A    between atoms: _453  and  _455
REMARK  193  A    between atoms: _455  and  _456
REMARK  194  A    between atoms: _459  and  _461
REMARK  195  A    between atoms: _461  and  _462
REMARK  196  A    between atoms: _461  and  _464
REMARK  197  A    between atoms: _464  and  _465
REMARK  198  A    between atoms: _465  and  _466
REMARK  199  A    between atoms: _466  and  _467
REMARK  200  A    between atoms: _467  and  _468
REMARK  201  A    between atoms: _472  and  _474
REMARK  202  A    between atoms: _474  and  _475
REMARK  203  A    between atoms: _477  and  _479
REMARK  204  A    between atoms: _479  and  _480
REMARK  205  A    between atoms: _483  and  _485
REMARK  206  A    between atoms: _485  and  _486
REMARK  207  A    between atoms: _485  and  _488
REMARK  208  A    between atoms: _488  and  _489
REMARK  209  A    between atoms: _489  and  _490
REMARK  210  A    between atoms: _493  and  _495
REMARK  211  A    between atoms: _495  and  _496
REMARK  212  A    between atoms: _495  and  _498
REMARK  213  A    between atoms: _498  and  _499
REMARK  214  A    between atoms: _499  and  _500
REMARK  215  A    between atoms: _500  and  _501
REMARK  216  A    between atoms: _510  and  _512
REMARK  217  A    between atoms: _512  and  _513
REMARK  218  A    between atoms: _512  and  _515
REMARK  219  A    between atoms: _518  and  _520
REMARK  220  A    between atoms: _520  and  _521
REMARK  221  A    between atoms: _520  and  _523
REMARK  222  A    between atoms: _523  and  _524
REMARK  223  A    between atoms: _527  and  _529
REMARK  224  A    between atoms: _529  and  _530
REMARK  225  A    between atoms: _529  and  _532
REMARK  226  A    between atoms: _532  and  _533
REMARK  227  A    between atoms: _536  and  _538
REMARK  228  A    between atoms: _538  and  _539
REMARK  229  A    between atoms: _538  and  _541
REMARK  230  A    between atoms: _541  and  _542
REMARK  231  A    between atoms: _545  and  _547
REMARK  232  A    between atoms: _547  and  _548
REMARK  233  A    between atoms: _547  and  _550
REMARK  234  A    between atoms: _550  and  _551
REMARK  235  A    between atoms: _551  and  _552
REMARK  236  A    between atoms: _552  and  _553
REMARK  237  A    between atoms: _553  and  _554
REMARK  238  A    between atoms: _558  and  _560
REMARK  239  A    between atoms: _560  and  _561
REMARK  240  A    between atoms: _560  and  _563
REMARK  241  A    between atoms: _563  and  _564
REMARK  242  A    between atoms: _564  and  _565
REMARK  243  A    between atoms: _568  and  _569
REMARK  244  A    between atoms: _574  and  _576
REMARK  245  A    between atoms: _576  and  _577
REMARK  246  A    between atoms: _576  and  _579
REMARK  247  A    between atoms: _579  and  _580
REMARK  248  A    between atoms: _583  and  _585
REMARK  249  A    between atoms: _585  and  _586
REMARK  250  A    between atoms: _585  and  _588
REMARK  251  A    between atoms: _588  and  _589
REMARK  252  A    between atoms: _589  and  _590
REMARK  253  A    between atoms: _595  and  _597
REMARK  254  A    between atoms: _597  and  _598
REMARK  255  A    between atoms: _597  and  _600
REMARK  256  A    between atoms: _600  and  _601
REMARK  257  A    between atoms: _601  and  _602
REMARK  258  A    between atoms: _604  and  _606
REMARK  259  A    between atoms: _606  and  _607
REMARK  260  A    between atoms: _606  and  _609
REMARK  261  A    between atoms: _609  and  _610
REMARK                            x       y       z     vdW  Elec       q    Type
REMARK                         _______ _______ _______ _____ _____    ______ ____
ROOT
ATOM      1  C   LEU A   1      39.361  10.403  97.060  0.00  0.00    +0.238 C 
ATOM      2  O   LEU A   1      38.988   9.842  98.090  0.00  0.00    -0.274 OA
ATOM      3  N   VAL A   2      39.294  11.725  96.905  0.00  0.00    -0.298 N 
ATOM      4  H   VAL A   2      39.598  12.152  96.007  0.00  0.00    +0.150 HD
ENDROOT
BRANCH   1   5
ATOM      5  CA  LEU A   1      39.907   9.588  95.873  0.00  0.00    +0.145 C 
BRANCH   5   6
ATOM      6  N   LEU A   1      39.405  10.149  94.638  0.00  0.00    -0.238 NA
ATOM      7  H   LEU A   1      40.068  10.556  93.948  0.00  0.00    +0.142 HD
ENDBRANCH   5   6
BRANCH   5   8
ATOM      8  CB  LEU A   1      41.444   9.592  95.840  0.00  0.00    +0.026 C 
BRANCH   8   9
ATOM      9  CG  LEU A   1      42.243   9.391  97.124  0.00  0.00    +0.002 C 
ATOM     10  CD2 LEU A   1      42.199  10.674  97.924  0.00  0.00    +0.000 C 
ATOM     11  CD1 LEU A   1      43.675   9.021  96.809  0.00  0.00    +0.000 C 
ENDBRANCH   8   9
ENDBRANCH   5   8
ENDBRANCH   1   5
BRANCH   3  12
ATOM     12  CA  VAL A   2      38.798  12.583  97.981  0.00  0.00    +0.137 C 
BRANCH  12  13
ATOM     13  CB  VAL A   2      39.088  14.084  97.712  0.00  0.00    +0.026 C 
ATOM     14  CG2 VAL A   2      38.384  14.945  98.757  0.00  0.00    +0.002 C 
ATOM     15  CG1 VAL A   2      40.598  14.348  97.762  0.00  0.00    +0.002 C 
ENDBRANCH  12  13
BRANCH  12  16
ATOM     16  C   VAL A   2      37.297  12.405  98.193  0.00  0.00    +0.227 C 
ATOM     17  O   VAL A   2      36.835  12.360  99.337  0.00  0.00    -0.286 OA
ENDBRANCH  12  16
ENDBRANCH   3  12
TORSDOF 7
REMARK  Name = ../refined-set-2016/1xap/1xap_pocket.pdb
REMARK  261 active torsions:
REMARK  status: ('A' for Active; 'I' for Inactive)
REMARK    1  A    between atoms: _1  and  _3
REMARK    2  A    between atoms: _3  and  _4
REMARK    3  A    between atoms: _3  and  _6
REMARK    4  A    between atoms: _6  and  _7
REMARK    5  A    between atoms: _10  and  _12
REMARK    6  A    between atoms: _12  and  _13
REMARK    7  A    between atoms: _12  and  _15
REMARK    8  A    between atoms: _15  and  _16
REMARK    9  A    between atoms: _23  and  _24
REMARK   10  A    between atoms: _29  and  _31
REMARK   11  A    between atoms: _31  and  _32
REMARK   12  A    between atoms: _31  and  _34
REMARK   13  A    between atoms: _34  and  _35
REMARK   14  A    between atoms: _38  and  _40
REMARK   15  A    between atoms: _40  and  _41
REMARK   16  A    between atoms: _40  and  _43
REMARK   17  A    between atoms: _43  and  _44
REMARK   18  A    between atoms: _54  and  _56
REMARK   19  A    between atoms: _56  and  _57
REMARK   20  A    between atoms: _56  and  _59
REMARK   21  A    between atoms: _59  and  _60
REMARK   22  A    between atoms: _60  and  _61
REMARK   23  A    between atoms: _61  and  _62
REMARK   24  A    between atoms: _62  and  _63
REMARK   25  A    between atoms: _67  and  _69
REMARK   26  A    between atoms: _69  and  _70
REMARK   27  A    between atoms: _69  and  _72
REMARK   28  A    between atoms: _72  and  _73
REMARK   29  A    between atoms: _79  and  _81
REMARK   30  A    between atoms: _81  and  _82
REMARK   31  A    between atoms: _81  and  _84
REMARK   32  A    between atoms: _84  and  _85
REMARK   33  A    between atoms: _87  and  _89
REMARK   34  A    between atoms: _89  and  _90
REMARK   35  A    between atoms: _89  and  _92
REMARK   36  A    between atoms: _92  and  _93
REMARK   37  A    between atoms: _93  and  _94
REMARK   38  A    between atoms: _97  and  _99
REMARK   39  A    between atoms: _99  and  _100
REMARK   40  A    between atoms: _99  and  _102
REMARK   41  A    between atoms: _102  and  _103
REMARK   42  A    between atoms: _106  and  _108
REMARK   43  A    between atoms: _108  and  _109
REMARK   44  A    between atoms: _112  and  _114
REMARK   45  A    between atoms: _114  and  _115
REMARK   46  A    between atoms: _114  and  _117
REMARK   47  A    between atoms: _117  and  _118
REMARK   48  A    between atoms: _121  and  _123
REMARK   49  A    between atoms: _123  and  _124
REMARK   50  A    between atoms: _123  and  _126
REMARK   51  A    between atoms: _126  and  _127
REMARK   52  A    between atoms: _127  and  _128
REMARK   53  A    between atoms: _128  and  _129
REMARK   54  A    between atoms: _129  and  _130
REMARK   55  A    between atoms: _134  and  _136
REMARK   56  A    between atoms: _136  and  _137
REMARK   57  A    between atoms: _136  and  _139
REMARK   58  A    between atoms: _141  and  _143
REMARK   59  A    between atoms: _143  and  _144
REMARK   60  A    between atoms: _143  and  _146
REMARK   61  A    between atoms: _146  and  _147
REMARK   62  A    between atoms: _150  and  _152
REMARK   63  A    between atoms: _152  and  _153
REMARK   64  A    between atoms: _152  and  _155
REMARK   65  A    between atoms: _155  and  _156
REMARK   66  A    between atoms: _156  and  _157
REMARK   67  A    between atoms: _157  and  _158
REMARK   68  A    between atoms: _158  and  _159
REMARK   69  A    between atoms: _163  and  _165
REMARK   70  A    between atoms: _165  and  _166
REMARK   71  A    between atoms: _165  and  _168
REMARK   72  A    between atoms: _168  and  _169
REMARK   73  A    between atoms: _172  and  _174
REMARK   74  A    between atoms: _174  and  _175
REMARK   75  A    between atoms: _174  and  _177
REMARK   76  A    between atoms: _179  and  _181
REMARK   77  A    between atoms: _181  and  _182
REMARK   78  A    between atoms: _181  and  _184
REMARK   79  A    between atoms: _184  and  _185
REMARK   80  A    between atoms: _188  and  _190
REMARK   81  A    between atoms: _190  and  _191
REMARK   82  A    between atoms: _190  and  _193
REMARK   83  A    between atoms: _193  and  _194
REMARK   84  A    between atoms: _197  and  _199
REMARK   85  A    between atoms: _199  and  _200
REMARK   86  A    between atoms: _199  and  _202
REMARK   87  A    between atoms: _202  and  _203
REMARK   88  A    between atoms: _206  and  _208
REMARK   89  A    between atoms: _208  and  _209
REMARK   90  A    between atoms: _208  and  _211
REMARK   91  A    between atoms: _211  and  _212
REMARK   92  A    between atoms: _215  and  _217
REMARK   93  A    between atoms: _217  and  _218
REMARK   94  A    between atoms: _217  and  _220
REMARK   95  A    between atoms: _220  and  _221
REMARK   96  A    between atoms: _224  and  _226
REMARK   97  A    between atoms: _226  and  _227
REMARK   98  A    between atoms: _226  and  _229
REMARK   99  A    between atoms: _229  and  _230
REMARK  100  A    between atoms: _233  and  _235
REMARK  101  A    between atoms: _235  and  _236
REMARK  102  A    between atoms: _235  and  _238
REMARK  103  A    between atoms: _238  and  _239
REMARK  104  A    between atoms: _239  and  _240
REMARK  105  A    between atoms: _240  and  _241
REMARK  106  A    between atoms: _250  and  _252
REMARK  107  A    between atoms: _252  and  _253
REMARK  108  A    between atoms: _252  and  _255
REMARK  109  A    between atoms: _255  and  _256
REMARK  110  A    between atoms: _259  and  _261
REMARK  111  A    between atoms: _261  and  _262
REMARK  112  A    between atoms: _261  and  _264
REMARK  113  A    between atoms: _266  and  _268
REMARK  114  A    between atoms: _268  and  _269
REMARK  115  A    between atoms: _268  and  _271
REMARK  116  A    between atoms: _271  and  _272
REMARK  117  A    between atoms: _275  and  _277
REMARK  118  A    between atoms: _277  and  _278
REMARK  119  A    between atoms: _277  and  _280
REMARK  120  A    between atoms: _280  and  _281
REMARK  121  A    between atoms: _281  and  _282
REMARK  122  A    between atoms: _282  and  _283
REMARK  123  A    between atoms: _292  and  _294
REMARK  124  A    between atoms: _294  and  _295
REMARK  125  A    between atoms: _294  and  _297
REMARK  126  A    between atoms: _297  and  _298
REMARK  127  A    between atoms: _298  and  _299
REMARK  128  A    between atoms: _301  and  _303
REMARK  129  A    between atoms: _303  and  _304
REMARK  130  A    between atoms: _303  and  _306
REMARK  131  A    between atoms: _306  and  _307
REMARK  132  A    between atoms: _310  and  _312
REMARK  133  A    between atoms: _312  and  _313
REMARK  134  A    between atoms: _312  and  _315
REMARK  135  A    between atoms: _315  and  _316
REMARK  136  A    between atoms: _322  and  _324
REMARK  137  A    between atoms: _324  and  _325
REMARK  138  A    between atoms: _324  and  _327
REMARK  139  A    between atoms: _327  and  _328
REMARK  140  A    between atoms: _330  and  _332
REMARK  141  A    between atoms: _332  and  _333
REMARK  142  A    between atoms: _332  and  _335
REMARK  143  A    between atoms: _335  and  _336
REMARK  144  A    between atoms: _339  and  _341
REMARK  145  A    between atoms: _341  and  _342
REMARK  146  A    between atoms: _344  and  _346
REMARK  147  A    between atoms: _346  and  _347
REMARK  148  A    between atoms: _346  and  _349
REMARK  149  A    between atoms: _349  and  _350
REMARK  150  A    between atoms: _353  and  _355
REMARK  151  A    between atoms: _355  and  _356
REMARK  152  A    between atoms: _355  and  _358
REMARK  153  A    between atoms: _358  and  _359
REMARK  154  A    between atoms: _359  and  _360
REMARK  155  A    between atoms: _362  and  _364
REMARK  156  A    between atoms: _364  and  _365
REMARK  157  A    between atoms: _364  and  _367
REMARK  158  A    between atoms: _367  and  _368
REMARK  159  A    between atoms: _373  and  _375
REMARK  160  A    between atoms: _375  and  _376
REMARK  161  A    between atoms: _379  and  _381
REMARK  162  A    between atoms: _381  and  _382
REMARK  163  A    between atoms: _384  and  _386
REMARK  164  A    between atoms: _386  and  _387
REMARK  165  A    between atoms: _386  and  _389
REMARK  166  A    between atoms: _389  and  _390
REMARK  167  A    between atoms: _396  and  _398
REMARK  168  A    between atoms: _398  and  _399
REMARK  169  A    between atoms: _401  and  _403
REMARK  170  A    between atoms: _403  and  _404
REMARK  171  A    between atoms: _403  and  _406
REMARK  172  A    between atoms: _406  and  _407
REMARK  173  A    between atoms: _410  and  _412
REMARK  174  A    between atoms: _412  and  _413
REMARK  175  A    between atoms: _412  and  _415
REMARK  176  A    between atoms: _415  and  _416
REMARK  177  A    between atoms: _419  and  _421
REMARK  178  A    between atoms: _421  and  _422
REMARK  179  A    between atoms: _421  and  _424
REMARK  180  A    between atoms: _424  and  _425
REMARK  181  A    between atoms: _428  and  _430
REMARK  182  A    between atoms: _430  and  _431
REMARK  183  A    between atoms: _430  and  _433
REMARK  184  A    between atoms: _436  and  _438
REMARK  185  A    between atoms: _438  and  _439
REMARK  186  A    between atoms: _438  and  _441
REMARK  187  A    between atoms: _441  and  _442
REMARK  188  A    between atoms: _445  and  _447
REMARK  189  A    between atoms: _447  and  _448
REMARK  190  A    between atoms: _447  and  _450
REMARK  191  A    between atoms: _450  and  _451
REMARK  192  A    between atoms: _453  and  _455
REMARK  193  A    between atoms: _455  and  _456
REMARK  194  A    between atoms: _459  and  _461
REMARK  195  A    between atoms: _461  and  _462
REMARK  196  A    between atoms: _461  and  _464
REMARK  197  A    between atoms: _464  and  _465
REMARK  198  A    between atoms: _465  and  _466
REMARK  199  A    between atoms: _466  and  _467
REMARK  200  A    between atoms: _467  and  _468
REMARK  201  A    between atoms: _472  and  _474
REMARK  202  A    between atoms: _474  and  _475
REMARK  203  A    between atoms: _477  and  _479
REMARK  204  A    between atoms: _479  and  _480
REMARK  205  A    between atoms: _483  and  _485
REMARK  206  A    between atoms: _485  and  _486
REMARK  207  A    between atoms: _485  and  _488
REMARK  208  A    between atoms: _488  and  _489
REMARK  209  A    between atoms: _489  and  _490
REMARK  210  A    between atoms: _493  and  _495
REMARK  211  A    between atoms: _495  and  _496
REMARK  212  A    between atoms: _495  and  _498
REMARK  213  A    between atoms: _498  and  _499
REMARK  214  A    between atoms: _499  and  _500
REMARK  215  A    between atoms: _500  and  _501
REMARK  216  A    between atoms: _510  and  _512
REMARK  217  A    between atoms: _512  and  _513
REMARK  218  A    between atoms: _512  and  _515
REMARK  219  A    between atoms: _518  and  _520
REMARK  220  A    between atoms: _520  and  _521
REMARK  221  A    between atoms: _520  and  _523
REMARK  222  A    between atoms: _523  and  _524
REMARK  223  A    between atoms: _527  and  _529
REMARK  224  A    between atoms: _529  and  _530
REMARK  225  A    between atoms: _529  and  _532
REMARK  226  A    between atoms: _532  and  _533
REMARK  227  A    between atoms: _536  and  _538
REMARK  228  A    between atoms: _538  and  _539
REMARK  229  A    between atoms: _538  and  _541
REMARK  230  A    between atoms: _541  and  _542
REMARK  231  A    between atoms: _545  and  _547
REMARK  232  A    between atoms: _547  and  _548
REMARK  233  A    between atoms: _547  and  _550
REMARK  234  A    between atoms: _550  and  _551
REMARK  235  A    between atoms: _551  and  _552
REMARK  236  A    between atoms: _552  and  _553
REMARK  237  A    between atoms: _553  and  _554
REMARK  238  A    between atoms: _558  and  _560
REMARK  239  A    between atoms: _560  and  _561
REMARK  240  A    between atoms: _560  and  _563
REMARK  241  A    between atoms: _563  and  _564
REMARK  242  A    between atoms: _564  and  _565
REMARK  243  A    between atoms: _568  and  _569
REMARK  244  A    between atoms: _574  and  _576
REMARK  245  A    between atoms: _576  and  _577
REMARK  246  A    between atoms: _576  and  _579
REMARK  247  A    between atoms: _579  and  _580
REMARK  248  A    between atoms: _583  and  _585
REMARK  249  A    between atoms: _585  and  _586
REMARK  250  A    between atoms: _585  and  _588
REMARK  251  A    between atoms: _588  and  _589
REMARK  252  A    between atoms: _589  and  _590
REMARK  253  A    between atoms: _595  and  _597
REMARK  254  A    between atoms: _597  and  _598
REMARK  255  A    between atoms: _597  and  _600
REMARK  256  A    between atoms: _600  and  _601
REMARK  257  A    between atoms: _601  and  _602
REMARK  258  A    between atoms: _604  and  _606
REMARK  259  A    between atoms: _606  and  _607
REMARK  260  A    between atoms: _606  and  _609
REMARK  261  A    between atoms: _609  and  _610
REMARK                            x       y       z     vdW  Elec       q    Type
REMARK                         _______ _______ _______ _____ _____    ______ ____
ROOT
ATOM      1  CA  ARG A   8      50.274  17.387  93.431  0.00  0.00    +0.149 C 
ENDROOT
BRANCH   1   2
ATOM      2  C   ARG A   8      50.700  18.858  93.455  0.00  0.00    +0.241 C 
ATOM      3  N   VAL A   9      51.303  19.316  94.547  0.00  0.00    -0.297 N 
ATOM      4  H   VAL A   9      51.474  18.683  95.354  0.00  0.00    +0.150 HD
ATOM      5  O   ARG A   8      50.485  19.572  92.486  0.00  0.00    -0.273 OA
BRANCH   3   6
ATOM      6  CA  VAL A   9      51.726  20.717  94.608  0.00  0.00    +0.149 C 
BRANCH   6   7
ATOM      7  C   VAL A   9      52.783  21.002  93.545  0.00  0.00    +0.241 C 
ATOM      8  N   ILE A  10      53.713  20.067  93.361  0.00  0.00    -0.297 N 
ATOM      9  H   ILE A  10      53.692  19.202  93.939  0.00  0.00    +0.150 HD
ATOM     10  O   VAL A   9      52.755  22.052  92.899  0.00  0.00    -0.273 OA
BRANCH   8  11
ATOM     11  CA  ILE A  10      54.763  20.238  92.359  0.00  0.00    +0.149 C 
BRANCH  11  12
ATOM     12  C   ILE A  10      54.112  20.381  90.993  0.00  0.00    +0.241 C 
ATOM     13  N   THR A  11      53.118  19.539  90.727  0.00  0.00    -0.295 N 
ATOM     14  H   THR A  11      52.836  18.838  91.442  0.00  0.00    +0.150 HD
ATOM     15  O   ILE A  10      54.484  21.243  90.201  0.00  0.00    -0.273 OA
BRANCH  13  16
ATOM     16  CA  THR A  11      52.415  19.581  89.448  0.00  0.00    +0.176 C 
BRANCH  16  17
ATOM     17  C   THR A  11      51.694  20.917  89.277  0.00  0.00    +0.243 C 
ATOM     18  N   LEU A  12      50.999  21.368  90.318  0.00  0.00    -0.297 N 
ATOM     19  H   LEU A  12      50.958  20.809  91.194  0.00  0.00    +0.150 HD
ATOM     20  O   THR A  11      51.767  21.536  88.216  0.00  0.00    -0.273 OA
BRANCH  18  21
ATOM     21  CA  LEU A  12      50.294  22.644  90.237  0.00  0.00    +0.149 C 
BRANCH  21  22
ATOM     22  C   LEU A  12      51.277  23.794  89.979  0.00  0.00    +0.241 C 
ATOM     23  N   LYS A  13      52.394  23.805  90.700  0.00  0.00    -0.298 N 
ATOM     24  H   LYS A  13      52.556  23.057  91.404  0.00  0.00    +0.150 HD
ATOM     25  O   LEU A  12      51.025  24.654  89.138  0.00  0.00    -0.273 OA
BRANCH  23  26
ATOM     26  CA  LYS A  13      53.399  24.854  90.519  0.00  0.00    +0.137 C 
BRANCH  26  27
ATOM     27  C   LYS A  13      53.845  24.926  89.063  0.00  0.00    +0.227 C 
ATOM     28  O   LYS A  13      54.028  26.007  88.505  0.00  0.00    -0.286 OA
ENDBRANCH  26  27
BRANCH  26  29
ATOM     29  CB  LYS A  13      54.615  24.596  91.411  0.00  0.00    +0.028 C 
BRANCH  29  30
ATOM     30  CG  LYS A  13      54.406  24.948  92.876  0.00  0.00    -0.000 C 
BRANCH  30  31
ATOM     31  CD  LYS A  13      55.644  24.601  93.709  0.00  0.00    -0.024 C 
BRANCH  31  32
ATOM     32  CE  LYS A  13      55.657  25.334  95.041  0.00  0.00    -0.086 C 
BRANCH  32  33
ATOM     33  NZ  LYS A  13      55.946  26.794  94.869  0.00  0.00    +0.380 N 
ATOM     34  HZ1 LYS A  13      55.946  27.258  95.800  0.00  0.00    -0.089 HD
ATOM     35  HZ2 LYS A  13      56.877  26.911  94.422  0.00  0.00    -0.089 HD
ATOM     36  HZ3 LYS A  13      55.214  27.222  94.267  0.00  0.00    -0.089 HD
ENDBRANCH  32  33
ENDBRANCH  31  32
ENDBRANCH  30  31
ENDBRANCH  29  30
ENDBRANCH  26  29
ENDBRANCH  23  26
ENDBRANCH  21  22
BRANCH  21  37
ATOM     37  CB  LEU A  12      49.511  22.899  91.529  0.00  0.00    +0.029 C 
BRANCH  37  38
ATOM     38  CG  LEU A  12      48.311  21.971  91.731  0.00  0.00    +0.002 C 
ATOM     39  CD2 LEU A  12      47.799  22.094  93.153  0.00  0.00    +0.000 C 
ATOM     40  CD1 LEU A  12      47.219  22.319  90.722  0.00  0.00    +0.000 C 
ENDBRANCH  37  38
ENDBRANCH  21  37
ENDBRANCH  18  21
ENDBRANCH  16  17
BRANCH  16  41
ATOM     41  CB  THR A  11      51.391  18.422  89.332  0.00  0.00    +0.137 C 
ATOM     42  CG2 THR A  11      50.832  18.358  87.924  0.00  0.00    +0.034 C 
BRANCH  41  43
ATOM     43  OG1 THR A  11      52.040  17.173  89.632  0.00  0.00    -0.382 OA
ATOM     44  HG1 THR A  11      51.384  16.435  89.557  0.00  0.00    +0.210 HD
ENDBRANCH  41  43
ENDBRANCH  16  41
ENDBRANCH  13  16
ENDBRANCH  11  12
BRANCH  11  45
ATOM     45  CB  ILE A  10      55.725  19.029  92.335  0.00  0.00    +0.027 C 
ATOM     46  CG2 ILE A  10      56.755  19.184  91.218  0.00  0.00    +0.002 C 
BRANCH  45  47
ATOM     47  CG1 ILE A  10      56.440  18.919  93.678  0.00  0.00    +0.002 C 
ATOM     48  CD1 ILE A  10      57.209  20.152  94.044  0.00  0.00    +0.000 C 
ENDBRANCH  45  47
ENDBRANCH  11  45
ENDBRANCH   8  11
ENDBRANCH   6   7
BRANCH   6  49
ATOM     49  CB  VAL A   9      52.319  21.098  95.978  0.00  0.00    +0.027 C 
ATOM     50  CG2 VAL A   9      51.572  20.413  97.074  0.00  0.00    +0.002 C 
ATOM     51  CG1 VAL A   9      52.260  22.610  96.163  0.00  0.00    +0.002 C 
ENDBRANCH   6  49
ENDBRANCH   3   6
ENDBRANCH   1   2
BRANCH   1  53
ATOM     52  C   GLU A   7      52.508  16.470  93.404  0.00  0.00    +0.241 C 
ATOM     53  N   ARG A   8      51.301  16.489  93.955  0.00  0.00    -0.297 N 
ATOM     54  H   ARG A   8      51.086  15.865  94.759  0.00  0.00    +0.150 HD
ATOM     55  O   GLU A   7      52.814  17.198  92.458  0.00  0.00    -0.273 OA
BRANCH  52  56
ATOM     56  CA  GLU A   7      53.522  15.497  94.001  0.00  0.00    +0.149 C 
BRANCH  56  59
ATOM     57  C   ALA A   6      53.804  16.505  96.179  0.00  0.00    +0.241 C 
ATOM     58  O   ALA A   6      54.337  17.492  95.665  0.00  0.00    -0.273 OA
ATOM     59  N   GLU A   7      53.377  15.473  95.456  0.00  0.00    -0.297 N 
ATOM     60  H   GLU A   7      52.942  14.652  95.924  0.00  0.00    +0.150 HD
BRANCH  57  61
ATOM     61  CA  ALA A   6      53.613  16.429  97.694  0.00  0.00    +0.149 C 
ATOM     62  CB  ALA A   6      54.659  15.477  98.323  0.00  0.00    +0.031 C 
BRANCH  61  64
ATOM     63  C   GLY A   5      51.190  16.651  97.624  0.00  0.00    +0.243 C 
ATOM     64  N   ALA A   6      52.265  15.998  98.053  0.00  0.00    -0.297 N 
ATOM     65  H   ALA A   6      52.143  15.161  98.658  0.00  0.00    +0.150 HD
ATOM     66  O   GLY A   5      51.264  17.647  96.899  0.00  0.00    -0.273 OA
BRANCH  63  67
ATOM     67  CA  GLY A   5      49.840  16.116  98.072  0.00  0.00    +0.176 C 
BRANCH  67  69
ATOM     68  C   LYS A   4      49.845  13.836  97.244  0.00  0.00    +0.241 C 
ATOM     69  N   GLY A   5      49.781  14.675  98.278  0.00  0.00    -0.295 N 
ATOM     70  H   GLY A   5      49.688  14.297  99.242  0.00  0.00    +0.150 HD
ATOM     71  O   LYS A   4      49.983  14.222  96.078  0.00  0.00    -0.273 OA
BRANCH  68  72
ATOM     72  CA  LYS A   4      49.766  12.340  97.566  0.00  0.00    +0.149 C 
BRANCH  72  75
ATOM     73  C   ALA A   3      50.956  12.219  99.679  0.00  0.00    +0.241 C 
ATOM     74  O   ALA A   3      52.022  12.540  99.151  0.00  0.00    -0.273 OA
ATOM     75  N   LYS A   4      49.821  12.094  98.999  0.00  0.00    -0.297 N 
ATOM     76  H   LYS A   4      48.954  11.815  99.501  0.00  0.00    +0.150 HD
BRANCH  73  77
ATOM     77  CA  ALA A   3      50.880  11.941 101.173  0.00  0.00    +0.149 C 
ATOM     78  CB  ALA A   3      51.137  10.455 101.435  0.00  0.00    +0.031 C 
BRANCH  77  80
ATOM     79  C   SER A   2      49.154  13.595 101.677  0.00  0.00    +0.243 C 
ATOM     80  N   ALA A   3      49.568  12.330 101.695  0.00  0.00    -0.297 N 
ATOM     81  H   ALA A   3      48.943  11.598 102.090  0.00  0.00    +0.150 HD
ATOM     82  O   SER A   2      49.831  14.500 101.215  0.00  0.00    -0.273 OA
BRANCH  79  83
ATOM     83  CA  SER A   2      47.757  13.887 102.244  0.00  0.00    +0.178 C 
BRANCH  83  85
ATOM     84  C   ILE A   1      46.588  12.264 100.893  0.00  0.00    +0.238 C 
ATOM     85  N   SER A   2      46.868  12.739 102.103  0.00  0.00    -0.295 N 
ATOM     86  H   SER A   2      46.454  12.293 102.947  0.00  0.00    +0.150 HD
ATOM     87  O   ILE A   1      47.077  12.742  99.876  0.00  0.00    -0.274 OA
BRANCH  84  88
ATOM     88  CA  ILE A   1      45.630  11.077 100.810  0.00  0.00    +0.145 C 
BRANCH  88  89
ATOM     89  CB  ILE A   1      44.192  11.582 101.071  0.00  0.00    +0.025 C 
ATOM     90  CG2 ILE A   1      43.818  12.645 100.040  0.00  0.00    +0.002 C 
BRANCH  89  91
ATOM     91  CG1 ILE A   1      43.211  10.410 101.001  0.00  0.00    +0.002 C 
ATOM     92  CD1 ILE A   1      41.776  10.793 101.311  0.00  0.00    +0.000 C 
ENDBRANCH  89  91
ENDBRANCH  88  89
BRANCH  88  93
ATOM     93  N   ILE A   1      45.999  10.023 101.742  0.00  0.00    -0.238 NA
ATOM     94  H   ILE A   1      45.401   9.839 102.573  0.00  0.00    +0.142 HD
ENDBRANCH  88  93
ENDBRANCH  84  88
ENDBRANCH  83  85
BRANCH  83  95
ATOM     95  CB  SER A   2      47.850  14.315 103.716  0.00  0.00    +0.166 C 
BRANCH  95  96
ATOM     96  OG  SER A   2      48.515  13.335 104.492  0.00  0.00    -0.380 OA
ATOM     97  H   SER A   2      48.560  13.636 105.434  0.00  0.00    +0.211 HD
ENDBRANCH  95  96
ENDBRANCH  83  95
ENDBRANCH  79  83
ENDBRANCH  77  80
ENDBRANCH  73  77
ENDBRANCH  72  75
BRANCH  72  98
ATOM     98  CB  LYS A   4      48.485  11.730  96.985  0.00  0.00    +0.029 C 
BRANCH  98  99
ATOM     99  CG  LYS A   4      48.411  10.204  97.147  0.00  0.00    +0.000 C 
BRANCH  99 100
ATOM    100  CD  LYS A   4      47.097   9.647  96.630  0.00  0.00    -0.024 C 
BRANCH 100 101
ATOM    101  CE  LYS A   4      46.963   8.150  96.928  0.00  0.00    -0.086 C 
BRANCH 101 102
ATOM    102  NZ  LYS A   4      47.988   7.329  96.218  0.00  0.00    +0.380 N 
ATOM    103  HZ1 LYS A   4      48.938   7.630  96.515  0.00  0.00    -0.089 HD
ATOM    104  HZ2 LYS A   4      47.852   6.326  96.455  0.00  0.00    -0.089 HD
ATOM    105  HZ3 LYS A   4      47.886   7.461  95.191  0.00  0.00    -0.089 HD
ENDBRANCH 101 102
ENDBRANCH 100 101
ENDBRANCH  99 100
ENDBRANCH  98  99
ENDBRANCH  72  98
ENDBRANCH  68  72
ENDBRANCH  67  69
ENDBRANCH  63  67
ENDBRANCH  61  64
ENDBRANCH  57  61
ENDBRANCH  56  59
BRANCH  56 106
ATOM    106  CB  GLU A   7      53.318  14.099  93.391  0.00  0.00    +0.041 C 
BRANCH 106 107
ATOM    107  CG  GLU A   7      53.365  14.072  91.846  0.00  0.00    +0.116 C 
BRANCH 107 108
ATOM    108  CD  GLU A   7      53.316  12.653  91.271  0.00  0.00    +0.365 C 
ATOM    109  OE2 GLU A   7      53.419  11.689  92.057  0.00  0.00    -0.246 OA
ATOM    110  OE1 GLU A   7      53.182  12.497  90.035  0.00  0.00    -0.246 OA
ENDBRANCH 107 108
ENDBRANCH 106 107
ENDBRANCH  56 106
ENDBRANCH  52  56
ENDBRANCH   1  53
BRANCH   1 111
ATOM    111  CB  ARG A   8      48.955  17.220  94.190  0.00  0.00    +0.033 C 
BRANCH 111 112
ATOM    112  CG  ARG A   8      47.794  17.967  93.531  0.00  0.00    +0.045 C 
BRANCH 112 113
ATOM    113  CD  ARG A   8      47.633  17.530  92.089  0.00  0.00    +0.174 C 
BRANCH 113 114
ATOM    114  NE  ARG A   8      46.732  18.400  91.341  0.00  0.00    -0.265 N 
ATOM    115  HE  ARG A   8      46.064  18.992  91.876  0.00  0.00    +0.259 HD
ATOM    116  CZ  ARG A   8      46.717  18.478  90.017  0.00  0.00    +0.342 C 
ATOM    117  NH2 ARG A   8      45.863  19.290  89.398  0.00  0.00    -0.292 N 
ATOM    118 HH21 ARG A   8      45.201  19.869  89.953  0.00  0.00    +0.255 HD
ATOM    119 HH22 ARG A   8      45.858  19.345  88.359  0.00  0.00    +0.255 HD
ATOM    120  NH1 ARG A   8      47.558  17.738  89.309  0.00  0.00    -0.292 N 
ATOM    121 HH11 ARG A   8      48.224  17.102  89.792  0.00  0.00    +0.255 HD
ATOM    122 HH12 ARG A   8      47.552  17.794  88.271  0.00  0.00    +0.255 HD
ENDBRANCH 113 114
ENDBRANCH 112 113
ENDBRANCH 111 112
ENDBRANCH   1 111
TORSDOF 54
REMARK  Name = ../refined-set-2016/1xap/1xap_pocket.pdb
REMARK  261 active torsions:
REMARK  status: ('A' for Active; 'I' for Inactive)
REMARK    1  A    between atoms: _1  and  _3
REMARK    2  A    between atoms: _3  and  _4
REMARK    3  A    between atoms: _3  and  _6
REMARK    4  A    between atoms: _6  and  _7
REMARK    5  A    between atoms: _10  and  _12
REMARK    6  A    between atoms: _12  and  _13
REMARK    7  A    between atoms: _12  and  _15
REMARK    8  A    between atoms: _15  and  _16
REMARK    9  A    between atoms: _23  and  _24
REMARK   10  A    between atoms: _29  and  _31
REMARK   11  A    between atoms: _31  and  _32
REMARK   12  A    between atoms: _31  and  _34
REMARK   13  A    between atoms: _34  and  _35
REMARK   14  A    between atoms: _38  and  _40
REMARK   15  A    between atoms: _40  and  _41
REMARK   16  A    between atoms: _40  and  _43
REMARK   17  A    between atoms: _43  and  _44
REMARK   18  A    between atoms: _54  and  _56
REMARK   19  A    between atoms: _56  and  _57
REMARK   20  A    between atoms: _56  and  _59
REMARK   21  A    between atoms: _59  and  _60
REMARK   22  A    between atoms: _60  and  _61
REMARK   23  A    between atoms: _61  and  _62
REMARK   24  A    between atoms: _62  and  _63
REMARK   25  A    between atoms: _67  and  _69
REMARK   26  A    between atoms: _69  and  _70
REMARK   27  A    between atoms: _69  and  _72
REMARK   28  A    between atoms: _72  and  _73
REMARK   29  A    between atoms: _79  and  _81
REMARK   30  A    between atoms: _81  and  _82
REMARK   31  A    between atoms: _81  and  _84
REMARK   32  A    between atoms: _84  and  _85
REMARK   33  A    between atoms: _87  and  _89
REMARK   34  A    between atoms: _89  and  _90
REMARK   35  A    between atoms: _89  and  _92
REMARK   36  A    between atoms: _92  and  _93
REMARK   37  A    between atoms: _93  and  _94
REMARK   38  A    between atoms: _97  and  _99
REMARK   39  A    between atoms: _99  and  _100
REMARK   40  A    between atoms: _99  and  _102
REMARK   41  A    between atoms: _102  and  _103
REMARK   42  A    between atoms: _106  and  _108
REMARK   43  A    between atoms: _108  and  _109
REMARK   44  A    between atoms: _112  and  _114
REMARK   45  A    between atoms: _114  and  _115
REMARK   46  A    between atoms: _114  and  _117
REMARK   47  A    between atoms: _117  and  _118
REMARK   48  A    between atoms: _121  and  _123
REMARK   49  A    between atoms: _123  and  _124
REMARK   50  A    between atoms: _123  and  _126
REMARK   51  A    between atoms: _126  and  _127
REMARK   52  A    between atoms: _127  and  _128
REMARK   53  A    between atoms: _128  and  _129
REMARK   54  A    between atoms: _129  and  _130
REMARK   55  A    between atoms: _134  and  _136
REMARK   56  A    between atoms: _136  and  _137
REMARK   57  A    between atoms: _136  and  _139
REMARK   58  A    between atoms: _141  and  _143
REMARK   59  A    between atoms: _143  and  _144
REMARK   60  A    between atoms: _143  and  _146
REMARK   61  A    between atoms: _146  and  _147
REMARK   62  A    between atoms: _150  and  _152
REMARK   63  A    between atoms: _152  and  _153
REMARK   64  A    between atoms: _152  and  _155
REMARK   65  A    between atoms: _155  and  _156
REMARK   66  A    between atoms: _156  and  _157
REMARK   67  A    between atoms: _157  and  _158
REMARK   68  A    between atoms: _158  and  _159
REMARK   69  A    between atoms: _163  and  _165
REMARK   70  A    between atoms: _165  and  _166
REMARK   71  A    between atoms: _165  and  _168
REMARK   72  A    between atoms: _168  and  _169
REMARK   73  A    between atoms: _172  and  _174
REMARK   74  A    between atoms: _174  and  _175
REMARK   75  A    between atoms: _174  and  _177
REMARK   76  A    between atoms: _179  and  _181
REMARK   77  A    between atoms: _181  and  _182
REMARK   78  A    between atoms: _181  and  _184
REMARK   79  A    between atoms: _184  and  _185
REMARK   80  A    between atoms: _188  and  _190
REMARK   81  A    between atoms: _190  and  _191
REMARK   82  A    between atoms: _190  and  _193
REMARK   83  A    between atoms: _193  and  _194
REMARK   84  A    between atoms: _197  and  _199
REMARK   85  A    between atoms: _199  and  _200
REMARK   86  A    between atoms: _199  and  _202
REMARK   87  A    between atoms: _202  and  _203
REMARK   88  A    between atoms: _206  and  _208
REMARK   89  A    between atoms: _208  and  _209
REMARK   90  A    between atoms: _208  and  _211
REMARK   91  A    between atoms: _211  and  _212
REMARK   92  A    between atoms: _215  and  _217
REMARK   93  A    between atoms: _217  and  _218
REMARK   94  A    between atoms: _217  and  _220
REMARK   95  A    between atoms: _220  and  _221
REMARK   96  A    between atoms: _224  and  _226
REMARK   97  A    between atoms: _226  and  _227
REMARK   98  A    between atoms: _226  and  _229
REMARK   99  A    between atoms: _229  and  _230
REMARK  100  A    between atoms: _233  and  _235
REMARK  101  A    between atoms: _235  and  _236
REMARK  102  A    between atoms: _235  and  _238
REMARK  103  A    between atoms: _238  and  _239
REMARK  104  A    between atoms: _239  and  _240
REMARK  105  A    between atoms: _240  and  _241
REMARK  106  A    between atoms: _250  and  _252
REMARK  107  A    between atoms: _252  and  _253
REMARK  108  A    between atoms: _252  and  _255
REMARK  109  A    between atoms: _255  and  _256
REMARK  110  A    between atoms: _259  and  _261
REMARK  111  A    between atoms: _261  and  _262
REMARK  112  A    between atoms: _261  and  _264
REMARK  113  A    between atoms: _266  and  _268
REMARK  114  A    between atoms: _268  and  _269
REMARK  115  A    between atoms: _268  and  _271
REMARK  116  A    between atoms: _271  and  _272
REMARK  117  A    between atoms: _275  and  _277
REMARK  118  A    between atoms: _277  and  _278
REMARK  119  A    between atoms: _277  and  _280
REMARK  120  A    between atoms: _280  and  _281
REMARK  121  A    between atoms: _281  and  _282
REMARK  122  A    between atoms: _282  and  _283
REMARK  123  A    between atoms: _292  and  _294
REMARK  124  A    between atoms: _294  and  _295
REMARK  125  A    between atoms: _294  and  _297
REMARK  126  A    between atoms: _297  and  _298
REMARK  127  A    between atoms: _298  and  _299
REMARK  128  A    between atoms: _301  and  _303
REMARK  129  A    between atoms: _303  and  _304
REMARK  130  A    between atoms: _303  and  _306
REMARK  131  A    between atoms: _306  and  _307
REMARK  132  A    between atoms: _310  and  _312
REMARK  133  A    between atoms: _312  and  _313
REMARK  134  A    between atoms: _312  and  _315
REMARK  135  A    between atoms: _315  and  _316
REMARK  136  A    between atoms: _322  and  _324
REMARK  137  A    between atoms: _324  and  _325
REMARK  138  A    between atoms: _324  and  _327
REMARK  139  A    between atoms: _327  and  _328
REMARK  140  A    between atoms: _330  and  _332
REMARK  141  A    between atoms: _332  and  _333
REMARK  142  A    between atoms: _332  and  _335
REMARK  143  A    between atoms: _335  and  _336
REMARK  144  A    between atoms: _339  and  _341
REMARK  145  A    between atoms: _341  and  _342
REMARK  146  A    between atoms: _344  and  _346
REMARK  147  A    between atoms: _346  and  _347
REMARK  148  A    between atoms: _346  and  _349
REMARK  149  A    between atoms: _349  and  _350
REMARK  150  A    between atoms: _353  and  _355
REMARK  151  A    between atoms: _355  and  _356
REMARK  152  A    between atoms: _355  and  _358
REMARK  153  A    between atoms: _358  and  _359
REMARK  154  A    between atoms: _359  and  _360
REMARK  155  A    between atoms: _362  and  _364
REMARK  156  A    between atoms: _364  and  _365
REMARK  157  A    between atoms: _364  and  _367
REMARK  158  A    between atoms: _367  and  _368
REMARK  159  A    between atoms: _373  and  _375
REMARK  160  A    between atoms: _375  and  _376
REMARK  161  A    between atoms: _379  and  _381
REMARK  162  A    between atoms: _381  and  _382
REMARK  163  A    between atoms: _384  and  _386
REMARK  164  A    between atoms: _386  and  _387
REMARK  165  A    between atoms: _386  and  _389
REMARK  166  A    between atoms: _389  and  _390
REMARK  167  A    between atoms: _396  and  _398
REMARK  168  A    between atoms: _398  and  _399
REMARK  169  A    between atoms: _401  and  _403
REMARK  170  A    between atoms: _403  and  _404
REMARK  171  A    between atoms: _403  and  _406
REMARK  172  A    between atoms: _406  and  _407
REMARK  173  A    between atoms: _410  and  _412
REMARK  174  A    between atoms: _412  and  _413
REMARK  175  A    between atoms: _412  and  _415
REMARK  176  A    between atoms: _415  and  _416
REMARK  177  A    between atoms: _419  and  _421
REMARK  178  A    between atoms: _421  and  _422
REMARK  179  A    between atoms: _421  and  _424
REMARK  180  A    between atoms: _424  and  _425
REMARK  181  A    between atoms: _428  and  _430
REMARK  182  A    between atoms: _430  and  _431
REMARK  183  A    between atoms: _430  and  _433
REMARK  184  A    between atoms: _436  and  _438
REMARK  185  A    between atoms: _438  and  _439
REMARK  186  A    between atoms: _438  and  _441
REMARK  187  A    between atoms: _441  and  _442
REMARK  188  A    between atoms: _445  and  _447
REMARK  189  A    between atoms: _447  and  _448
REMARK  190  A    between atoms: _447  and  _450
REMARK  191  A    between atoms: _450  and  _451
REMARK  192  A    between atoms: _453  and  _455
REMARK  193  A    between atoms: _455  and  _456
REMARK  194  A    between atoms: _459  and  _461
REMARK  195  A    between atoms: _461  and  _462
REMARK  196  A    between atoms: _461  and  _464
REMARK  197  A    between atoms: _464  and  _465
REMARK  198  A    between atoms: _465  and  _466
REMARK  199  A    between atoms: _466  and  _467
REMARK  200  A    between atoms: _467  and  _468
REMARK  201  A    between atoms: _472  and  _474
REMARK  202  A    between atoms: _474  and  _475
REMARK  203  A    between atoms: _477  and  _479
REMARK  204  A    between atoms: _479  and  _480
REMARK  205  A    between atoms: _483  and  _485
REMARK  206  A    between atoms: _485  and  _486
REMARK  207  A    between atoms: _485  and  _488
REMARK  208  A    between atoms: _488  and  _489
REMARK  209  A    between atoms: _489  and  _490
REMARK  210  A    between atoms: _493  and  _495
REMARK  211  A    between atoms: _495  and  _496
REMARK  212  A    between atoms: _495  and  _498
REMARK  213  A    between atoms: _498  and  _499
REMARK  214  A    between atoms: _499  and  _500
REMARK  215  A    between atoms: _500  and  _501
REMARK  216  A    between atoms: _510  and  _512
REMARK  217  A    between atoms: _512  and  _513
REMARK  218  A    between atoms: _512  and  _515
REMARK  219  A    between atoms: _518  and  _520
REMARK  220  A    between atoms: _520  and  _521
REMARK  221  A    between atoms: _520  and  _523
REMARK  222  A    between atoms: _523  and  _524
REMARK  223  A    between atoms: _527  and  _529
REMARK  224  A    between atoms: _529  and  _530
REMARK  225  A    between atoms: _529  and  _532
REMARK  226  A    between atoms: _532  and  _533
REMARK  227  A    between atoms: _536  and  _538
REMARK  228  A    between atoms: _538  and  _539
REMARK  229  A    between atoms: _538  and  _541
REMARK  230  A    between atoms: _541  and  _542
REMARK  231  A    between atoms: _545  and  _547
REMARK  232  A    between atoms: _547  and  _548
REMARK  233  A    between atoms: _547  and  _550
REMARK  234  A    between atoms: _550  and  _551
REMARK  235  A    between atoms: _551  and  _552
REMARK  236  A    between atoms: _552  and  _553
REMARK  237  A    between atoms: _553  and  _554
REMARK  238  A    between atoms: _558  and  _560
REMARK  239  A    between atoms: _560  and  _561
REMARK  240  A    between atoms: _560  and  _563
REMARK  241  A    between atoms: _563  and  _564
REMARK  242  A    between atoms: _564  and  _565
REMARK  243  A    between atoms: _568  and  _569
REMARK  244  A    between atoms: _574  and  _576
REMARK  245  A    between atoms: _576  and  _577
REMARK  246  A    between atoms: _576  and  _579
REMARK  247  A    between atoms: _579  and  _580
REMARK  248  A    between atoms: _583  and  _585
REMARK  249  A    between atoms: _585  and  _586
REMARK  250  A    between atoms: _585  and  _588
REMARK  251  A    between atoms: _588  and  _589
REMARK  252  A    between atoms: _589  and  _590
REMARK  253  A    between atoms: _595  and  _597
REMARK  254  A    between atoms: _597  and  _598
REMARK  255  A    between atoms: _597  and  _600
REMARK  256  A    between atoms: _600  and  _601
REMARK  257  A    between atoms: _601  and  _602
REMARK  258  A    between atoms: _604  and  _606
REMARK  259  A    between atoms: _606  and  _607
REMARK  260  A    between atoms: _606  and  _609
REMARK  261  A    between atoms: _609  and  _610
REMARK                            x       y       z     vdW  Elec       q    Type
REMARK                         _______ _______ _______ _____ _____    ______ ____
ROOT
ATOM      1  C   MET A   1      51.921  30.059  96.206  0.00  0.00    +0.241 C 
ATOM      2  O   MET A   1      52.903  30.562  96.743  0.00  0.00    -0.273 OA
ATOM      3  N   PRO A   2      50.682  30.235  96.693  0.00  0.00    -0.273 N 
ATOM      4  CA  PRO A   2      50.460  31.011  97.920  0.00  0.00    +0.140 C 
ATOM      5  CB  PRO A   2      49.012  30.693  98.255  0.00  0.00    +0.030 C 
ATOM      6  CG  PRO A   2      48.394  30.628  96.883  0.00  0.00    +0.024 C 
ATOM      7  CD  PRO A   2      49.401  29.783  96.123  0.00  0.00    +0.094 C 
ENDROOT
BRANCH   4   8
ATOM      8  C   PRO A   2      51.440  30.635  99.040  0.00  0.00    +0.227 C 
ATOM      9  O   PRO A   2      51.634  29.453  99.343  0.00  0.00    -0.286 OA
ENDBRANCH   4   8
BRANCH   1  10
ATOM     10  CA  MET A   1      52.077  29.235  94.922  0.00  0.00    +0.146 C 
BRANCH  10  11
ATOM     11  N   MET A   1      52.805  30.062  93.971  0.00  0.00    -0.238 NA
ATOM     12  H   MET A   1      53.805  29.848  93.781  0.00  0.00    +0.142 HD
ENDBRANCH  10  11
BRANCH  10  13
ATOM     13  CB  MET A   1      52.883  27.958  95.194  0.00  0.00    +0.038 C 
BRANCH  13  14
ATOM     14  CG  MET A   1      52.222  26.932  96.101  0.00  0.00    +0.060 C 
BRANCH  14  15
ATOM     15  SD  MET A   1      50.650  26.290  95.492  0.00  0.00    -0.139 S 
ATOM     16  CE  MET A   1      51.154  25.540  93.978  0.00  0.00    +0.069 C 
ENDBRANCH  14  15
ENDBRANCH  13  14
ENDBRANCH  10  13
ENDBRANCH   1  10
TORSDOF 6
REMARK  Name = ../refined-set-2016/1xap/1xap_pocket.pdb
REMARK  261 active torsions:
REMARK  status: ('A' for Active; 'I' for Inactive)
REMARK    1  A    between atoms: _1  and  _3
REMARK    2  A    between atoms: _3  and  _4
REMARK    3  A    between atoms: _3  and  _6
REMARK    4  A    between atoms: _6  and  _7
REMARK    5  A    between atoms: _10  and  _12
REMARK    6  A    between atoms: _12  and  _13
REMARK    7  A    between atoms: _12  and  _15
REMARK    8  A    between atoms: _15  and  _16
REMARK    9  A    between atoms: _23  and  _24
REMARK   10  A    between atoms: _29  and  _31
REMARK   11  A    between atoms: _31  and  _32
REMARK   12  A    between atoms: _31  and  _34
REMARK   13  A    between atoms: _34  and  _35
REMARK   14  A    between atoms: _38  and  _40
REMARK   15  A    between atoms: _40  and  _41
REMARK   16  A    between atoms: _40  and  _43
REMARK   17  A    between atoms: _43  and  _44
REMARK   18  A    between atoms: _54  and  _56
REMARK   19  A    between atoms: _56  and  _57
REMARK   20  A    between atoms: _56  and  _59
REMARK   21  A    between atoms: _59  and  _60
REMARK   22  A    between atoms: _60  and  _61
REMARK   23  A    between atoms: _61  and  _62
REMARK   24  A    between atoms: _62  and  _63
REMARK   25  A    between atoms: _67  and  _69
REMARK   26  A    between atoms: _69  and  _70
REMARK   27  A    between atoms: _69  and  _72
REMARK   28  A    between atoms: _72  and  _73
REMARK   29  A    between atoms: _79  and  _81
REMARK   30  A    between atoms: _81  and  _82
REMARK   31  A    between atoms: _81  and  _84
REMARK   32  A    between atoms: _84  and  _85
REMARK   33  A    between atoms: _87  and  _89
REMARK   34  A    between atoms: _89  and  _90
REMARK   35  A    between atoms: _89  and  _92
REMARK   36  A    between atoms: _92  and  _93
REMARK   37  A    between atoms: _93  and  _94
REMARK   38  A    between atoms: _97  and  _99
REMARK   39  A    between atoms: _99  and  _100
REMARK   40  A    between atoms: _99  and  _102
REMARK   41  A    between atoms: _102  and  _103
REMARK   42  A    between atoms: _106  and  _108
REMARK   43  A    between atoms: _108  and  _109
REMARK   44  A    between atoms: _112  and  _114
REMARK   45  A    between atoms: _114  and  _115
REMARK   46  A    between atoms: _114  and  _117
REMARK   47  A    between atoms: _117  and  _118
REMARK   48  A    between atoms: _121  and  _123
REMARK   49  A    between atoms: _123  and  _124
REMARK   50  A    between atoms: _123  and  _126
REMARK   51  A    between atoms: _126  and  _127
REMARK   52  A    between atoms: _127  and  _128
REMARK   53  A    between atoms: _128  and  _129
REMARK   54  A    between atoms: _129  and  _130
REMARK   55  A    between atoms: _134  and  _136
REMARK   56  A    between atoms: _136  and  _137
REMARK   57  A    between atoms: _136  and  _139
REMARK   58  A    between atoms: _141  and  _143
REMARK   59  A    between atoms: _143  and  _144
REMARK   60  A    between atoms: _143  and  _146
REMARK   61  A    between atoms: _146  and  _147
REMARK   62  A    between atoms: _150  and  _152
REMARK   63  A    between atoms: _152  and  _153
REMARK   64  A    between atoms: _152  and  _155
REMARK   65  A    between atoms: _155  and  _156
REMARK   66  A    between atoms: _156  and  _157
REMARK   67  A    between atoms: _157  and  _158
REMARK   68  A    between atoms: _158  and  _159
REMARK   69  A    between atoms: _163  and  _165
REMARK   70  A    between atoms: _165  and  _166
REMARK   71  A    between atoms: _165  and  _168
REMARK   72  A    between atoms: _168  and  _169
REMARK   73  A    between atoms: _172  and  _174
REMARK   74  A    between atoms: _174  and  _175
REMARK   75  A    between atoms: _174  and  _177
REMARK   76  A    between atoms: _179  and  _181
REMARK   77  A    between atoms: _181  and  _182
REMARK   78  A    between atoms: _181  and  _184
REMARK   79  A    between atoms: _184  and  _185
REMARK   80  A    between atoms: _188  and  _190
REMARK   81  A    between atoms: _190  and  _191
REMARK   82  A    between atoms: _190  and  _193
REMARK   83  A    between atoms: _193  and  _194
REMARK   84  A    between atoms: _197  and  _199
REMARK   85  A    between atoms: _199  and  _200
REMARK   86  A    between atoms: _199  and  _202
REMARK   87  A    between atoms: _202  and  _203
REMARK   88  A    between atoms: _206  and  _208
REMARK   89  A    between atoms: _208  and  _209
REMARK   90  A    between atoms: _208  and  _211
REMARK   91  A    between atoms: _211  and  _212
REMARK   92  A    between atoms: _215  and  _217
REMARK   93  A    between atoms: _217  and  _218
REMARK   94  A    between atoms: _217  and  _220
REMARK   95  A    between atoms: _220  and  _221
REMARK   96  A    between atoms: _224  and  _226
REMARK   97  A    between atoms: _226  and  _227
REMARK   98  A    between atoms: _226  and  _229
REMARK   99  A    between atoms: _229  and  _230
REMARK  100  A    between atoms: _233  and  _235
REMARK  101  A    between atoms: _235  and  _236
REMARK  102  A    between atoms: _235  and  _238
REMARK  103  A    between atoms: _238  and  _239
REMARK  104  A    between atoms: _239  and  _240
REMARK  105  A    between atoms: _240  and  _241
REMARK  106  A    between atoms: _250  and  _252
REMARK  107  A    between atoms: _252  and  _253
REMARK  108  A    between atoms: _252  and  _255
REMARK  109  A    between atoms: _255  and  _256
REMARK  110  A    between atoms: _259  and  _261
REMARK  111  A    between atoms: _261  and  _262
REMARK  112  A    between atoms: _261  and  _264
REMARK  113  A    between atoms: _266  and  _268
REMARK  114  A    between atoms: _268  and  _269
REMARK  115  A    between atoms: _268  and  _271
REMARK  116  A    between atoms: _271  and  _272
REMARK  117  A    between atoms: _275  and  _277
REMARK  118  A    between atoms: _277  and  _278
REMARK  119  A    between atoms: _277  and  _280
REMARK  120  A    between atoms: _280  and  _281
REMARK  121  A    between atoms: _281  and  _282
REMARK  122  A    between atoms: _282  and  _283
REMARK  123  A    between atoms: _292  and  _294
REMARK  124  A    between atoms: _294  and  _295
REMARK  125  A    between atoms: _294  and  _297
REMARK  126  A    between atoms: _297  and  _298
REMARK  127  A    between atoms: _298  and  _299
REMARK  128  A    between atoms: _301  and  _303
REMARK  129  A    between atoms: _303  and  _304
REMARK  130  A    between atoms: _303  and  _306
REMARK  131  A    between atoms: _306  and  _307
REMARK  132  A    between atoms: _310  and  _312
REMARK  133  A    between atoms: _312  and  _313
REMARK  134  A    between atoms: _312  and  _315
REMARK  135  A    between atoms: _315  and  _316
REMARK  136  A    between atoms: _322  and  _324
REMARK  137  A    between atoms: _324  and  _325
REMARK  138  A    between atoms: _324  and  _327
REMARK  139  A    between atoms: _327  and  _328
REMARK  140  A    between atoms: _330  and  _332
REMARK  141  A    between atoms: _332  and  _333
REMARK  142  A    between atoms: _332  and  _335
REMARK  143  A    between atoms: _335  and  _336
REMARK  144  A    between atoms: _339  and  _341
REMARK  145  A    between atoms: _341  and  _342
REMARK  146  A    between atoms: _344  and  _346
REMARK  147  A    between atoms: _346  and  _347
REMARK  148  A    between atoms: _346  and  _349
REMARK  149  A    between atoms: _349  and  _350
REMARK  150  A    between atoms: _353  and  _355
REMARK  151  A    between atoms: _355  and  _356
REMARK  152  A    between atoms: _355  and  _358
REMARK  153  A    between atoms: _358  and  _359
REMARK  154  A    between atoms: _359  and  _360
REMARK  155  A    between atoms: _362  and  _364
REMARK  156  A    between atoms: _364  and  _365
REMARK  157  A    between atoms: _364  and  _367
REMARK  158  A    between atoms: _367  and  _368
REMARK  159  A    between atoms: _373  and  _375
REMARK  160  A    between atoms: _375  and  _376
REMARK  161  A    between atoms: _379  and  _381
REMARK  162  A    between atoms: _381  and  _382
REMARK  163  A    between atoms: _384  and  _386
REMARK  164  A    between atoms: _386  and  _387
REMARK  165  A    between atoms: _386  and  _389
REMARK  166  A    between atoms: _389  and  _390
REMARK  167  A    between atoms: _396  and  _398
REMARK  168  A    between atoms: _398  and  _399
REMARK  169  A    between atoms: _401  and  _403
REMARK  170  A    between atoms: _403  and  _404
REMARK  171  A    between atoms: _403  and  _406
REMARK  172  A    between atoms: _406  and  _407
REMARK  173  A    between atoms: _410  and  _412
REMARK  174  A    between atoms: _412  and  _413
REMARK  175  A    between atoms: _412  and  _415
REMARK  176  A    between atoms: _415  and  _416
REMARK  177  A    between atoms: _419  and  _421
REMARK  178  A    between atoms: _421  and  _422
REMARK  179  A    between atoms: _421  and  _424
REMARK  180  A    between atoms: _424  and  _425
REMARK  181  A    between atoms: _428  and  _430
REMARK  182  A    between atoms: _430  and  _431
REMARK  183  A    between atoms: _430  and  _433
REMARK  184  A    between atoms: _436  and  _438
REMARK  185  A    between atoms: _438  and  _439
REMARK  186  A    between atoms: _438  and  _441
REMARK  187  A    between atoms: _441  and  _442
REMARK  188  A    between atoms: _445  and  _447
REMARK  189  A    between atoms: _447  and  _448
REMARK  190  A    between atoms: _447  and  _450
REMARK  191  A    between atoms: _450  and  _451
REMARK  192  A    between atoms: _453  and  _455
REMARK  193  A    between atoms: _455  and  _456
REMARK  194  A    between atoms: _459  and  _461
REMARK  195  A    between atoms: _461  and  _462
REMARK  196  A    between atoms: _461  and  _464
REMARK  197  A    between atoms: _464  and  _465
REMARK  198  A    between atoms: _465  and  _466
REMARK  199  A    between atoms: _466  and  _467
REMARK  200  A    between atoms: _467  and  _468
REMARK  201  A    between atoms: _472  and  _474
REMARK  202  A    between atoms: _474  and  _475
REMARK  203  A    between atoms: _477  and  _479
REMARK  204  A    between atoms: _479  and  _480
REMARK  205  A    between atoms: _483  and  _485
REMARK  206  A    between atoms: _485  and  _486
REMARK  207  A    between atoms: _485  and  _488
REMARK  208  A    between atoms: _488  and  _489
REMARK  209  A    between atoms: _489  and  _490
REMARK  210  A    between atoms: _493  and  _495
REMARK  211  A    between atoms: _495  and  _496
REMARK  212  A    between atoms: _495  and  _498
REMARK  213  A    between atoms: _498  and  _499
REMARK  214  A    between atoms: _499  and  _500
REMARK  215  A    between atoms: _500  and  _501
REMARK  216  A    between atoms: _510  and  _512
REMARK  217  A    between atoms: _512  and  _513
REMARK  218  A    between atoms: _512  and  _515
REMARK  219  A    between atoms: _518  and  _520
REMARK  220  A    between atoms: _520  and  _521
REMARK  221  A    between atoms: _520  and  _523
REMARK  222  A    between atoms: _523  and  _524
REMARK  223  A    between atoms: _527  and  _529
REMARK  224  A    between atoms: _529  and  _530
REMARK  225  A    between atoms: _529  and  _532
REMARK  226  A    between atoms: _532  and  _533
REMARK  227  A    between atoms: _536  and  _538
REMARK  228  A    between atoms: _538  and  _539
REMARK  229  A    between atoms: _538  and  _541
REMARK  230  A    between atoms: _541  and  _542
REMARK  231  A    between atoms: _545  and  _547
REMARK  232  A    between atoms: _547  and  _548
REMARK  233  A    between atoms: _547  and  _550
REMARK  234  A    between atoms: _550  and  _551
REMARK  235  A    between atoms: _551  and  _552
REMARK  236  A    between atoms: _552  and  _553
REMARK  237  A    between atoms: _553  and  _554
REMARK  238  A    between atoms: _558  and  _560
REMARK  239  A    between atoms: _560  and  _561
REMARK  240  A    between atoms: _560  and  _563
REMARK  241  A    between atoms: _563  and  _564
REMARK  242  A    between atoms: _564  and  _565
REMARK  243  A    between atoms: _568  and  _569
REMARK  244  A    between atoms: _574  and  _576
REMARK  245  A    between atoms: _576  and  _577
REMARK  246  A    between atoms: _576  and  _579
REMARK  247  A    between atoms: _579  and  _580
REMARK  248  A    between atoms: _583  and  _585
REMARK  249  A    between atoms: _585  and  _586
REMARK  250  A    between atoms: _585  and  _588
REMARK  251  A    between atoms: _588  and  _589
REMARK  252  A    between atoms: _589  and  _590
REMARK  253  A    between atoms: _595  and  _597
REMARK  254  A    between atoms: _597  and  _598
REMARK  255  A    between atoms: _597  and  _600
REMARK  256  A    between atoms: _600  and  _601
REMARK  257  A    between atoms: _601  and  _602
REMARK  258  A    between atoms: _604  and  _606
REMARK  259  A    between atoms: _606  and  _607
REMARK  260  A    between atoms: _606  and  _609
REMARK  261  A    between atoms: _609  and  _610
REMARK                            x       y       z     vdW  Elec       q    Type
REMARK                         _______ _______ _______ _____ _____    ______ ____
ROOT
ATOM      1  C   ILE A   1      51.896  26.129 100.909  0.00  0.00    +0.238 C 
ATOM      2  O   ILE A   1      52.271  24.998 101.237  0.00  0.00    -0.274 OA
ATOM      3  N   GLN A   2      52.701  27.038 100.380  0.00  0.00    -0.298 N 
ATOM      4  H   GLN A   2      52.314  27.970 100.128  0.00  0.00    +0.150 HD
ENDROOT
BRANCH   1   5
ATOM      5  CA  ILE A   1      50.459  26.592 101.113  0.00  0.00    +0.145 C 
BRANCH   5   6
ATOM      6  N   ILE A   1      50.579  27.929 101.684  0.00  0.00    -0.238 NA
ATOM      7  H   ILE A   1      50.316  28.761 101.118  0.00  0.00    +0.142 HD
ENDBRANCH   5   6
BRANCH   5   8
ATOM      8  CB  ILE A   1      49.723  26.617  99.753  0.00  0.00    +0.025 C 
ATOM      9  CG2 ILE A   1      49.758  25.236  99.125  0.00  0.00    +0.002 C 
BRANCH   8  10
ATOM     10  CG1 ILE A   1      48.280  27.094  99.952  0.00  0.00    +0.002 C 
ATOM     11  CD1 ILE A   1      47.430  27.066  98.685  0.00  0.00    +0.000 C 
ENDBRANCH   8  10
ENDBRANCH   5   8
ENDBRANCH   1   5
BRANCH   3  12
ATOM     12  CA  GLN A   2      54.109  26.771 100.141  0.00  0.00    +0.137 C 
BRANCH  12  13
ATOM     13  C   GLN A   2      54.725  26.283 101.455  0.00  0.00    +0.227 C 
ATOM     14  O   GLN A   2      55.328  25.210 101.503  0.00  0.00    -0.286 OA
ENDBRANCH  12  13
BRANCH  12  15
ATOM     15  CB  GLN A   2      54.786  28.060  99.673  0.00  0.00    +0.037 C 
BRANCH  15  16
ATOM     16  CG  GLN A   2      56.167  27.903  99.087  0.00  0.00    +0.087 C 
BRANCH  16  17
ATOM     17  CD  GLN A   2      56.741  29.240  98.666  0.00  0.00    +0.219 C 
ATOM     18  NE2 GLN A   2      57.930  29.560  99.165  0.00  0.00    -0.329 N 
ATOM     19 HE21 GLN A   2      58.419  28.903  99.806  0.00  0.00    +0.145 HD
ATOM     20 HE22 GLN A   2      58.372  30.467  98.914  0.00  0.00    +0.145 HD
ATOM     21  OE1 GLN A   2      56.120  29.981  97.903  0.00  0.00    -0.275 OA
ENDBRANCH  16  17
ENDBRANCH  15  16
ENDBRANCH  12  15
ENDBRANCH   3  12
TORSDOF 9
REMARK  Name = ../refined-set-2016/1xap/1xap_pocket.pdb
REMARK  261 active torsions:
REMARK  status: ('A' for Active; 'I' for Inactive)
REMARK    1  A    between atoms: _1  and  _3
REMARK    2  A    between atoms: _3  and  _4
REMARK    3  A    between atoms: _3  and  _6
REMARK    4  A    between atoms: _6  and  _7
REMARK    5  A    between atoms: _10  and  _12
REMARK    6  A    between atoms: _12  and  _13
REMARK    7  A    between atoms: _12  and  _15
REMARK    8  A    between atoms: _15  and  _16
REMARK    9  A    between atoms: _23  and  _24
REMARK   10  A    between atoms: _29  and  _31
REMARK   11  A    between atoms: _31  and  _32
REMARK   12  A    between atoms: _31  and  _34
REMARK   13  A    between atoms: _34  and  _35
REMARK   14  A    between atoms: _38  and  _40
REMARK   15  A    between atoms: _40  and  _41
REMARK   16  A    between atoms: _40  and  _43
REMARK   17  A    between atoms: _43  and  _44
REMARK   18  A    between atoms: _54  and  _56
REMARK   19  A    between atoms: _56  and  _57
REMARK   20  A    between atoms: _56  and  _59
REMARK   21  A    between atoms: _59  and  _60
REMARK   22  A    between atoms: _60  and  _61
REMARK   23  A    between atoms: _61  and  _62
REMARK   24  A    between atoms: _62  and  _63
REMARK   25  A    between atoms: _67  and  _69
REMARK   26  A    between atoms: _69  and  _70
REMARK   27  A    between atoms: _69  and  _72
REMARK   28  A    between atoms: _72  and  _73
REMARK   29  A    between atoms: _79  and  _81
REMARK   30  A    between atoms: _81  and  _82
REMARK   31  A    between atoms: _81  and  _84
REMARK   32  A    between atoms: _84  and  _85
REMARK   33  A    between atoms: _87  and  _89
REMARK   34  A    between atoms: _89  and  _90
REMARK   35  A    between atoms: _89  and  _92
REMARK   36  A    between atoms: _92  and  _93
REMARK   37  A    between atoms: _93  and  _94
REMARK   38  A    between atoms: _97  and  _99
REMARK   39  A    between atoms: _99  and  _100
REMARK   40  A    between atoms: _99  and  _102
REMARK   41  A    between atoms: _102  and  _103
REMARK   42  A    between atoms: _106  and  _108
REMARK   43  A    between atoms: _108  and  _109
REMARK   44  A    between atoms: _112  and  _114
REMARK   45  A    between atoms: _114  and  _115
REMARK   46  A    between atoms: _114  and  _117
REMARK   47  A    between atoms: _117  and  _118
REMARK   48  A    between atoms: _121  and  _123
REMARK   49  A    between atoms: _123  and  _124
REMARK   50  A    between atoms: _123  and  _126
REMARK   51  A    between atoms: _126  and  _127
REMARK   52  A    between atoms: _127  and  _128
REMARK   53  A    between atoms: _128  and  _129
REMARK   54  A    between atoms: _129  and  _130
REMARK   55  A    between atoms: _134  and  _136
REMARK   56  A    between atoms: _136  and  _137
REMARK   57  A    between atoms: _136  and  _139
REMARK   58  A    between atoms: _141  and  _143
REMARK   59  A    between atoms: _143  and  _144
REMARK   60  A    between atoms: _143  and  _146
REMARK   61  A    between atoms: _146  and  _147
REMARK   62  A    between atoms: _150  and  _152
REMARK   63  A    between atoms: _152  and  _153
REMARK   64  A    between atoms: _152  and  _155
REMARK   65  A    between atoms: _155  and  _156
REMARK   66  A    between atoms: _156  and  _157
REMARK   67  A    between atoms: _157  and  _158
REMARK   68  A    between atoms: _158  and  _159
REMARK   69  A    between atoms: _163  and  _165
REMARK   70  A    between atoms: _165  and  _166
REMARK   71  A    between atoms: _165  and  _168
REMARK   72  A    between atoms: _168  and  _169
REMARK   73  A    between atoms: _172  and  _174
REMARK   74  A    between atoms: _174  and  _175
REMARK   75  A    between atoms: _174  and  _177
REMARK   76  A    between atoms: _179  and  _181
REMARK   77  A    between atoms: _181  and  _182
REMARK   78  A    between atoms: _181  and  _184
REMARK   79  A    between atoms: _184  and  _185
REMARK   80  A    between atoms: _188  and  _190
REMARK   81  A    between atoms: _190  and  _191
REMARK   82  A    between atoms: _190  and  _193
REMARK   83  A    between atoms: _193  and  _194
REMARK   84  A    between atoms: _197  and  _199
REMARK   85  A    between atoms: _199  and  _200
REMARK   86  A    between atoms: _199  and  _202
REMARK   87  A    between atoms: _202  and  _203
REMARK   88  A    between atoms: _206  and  _208
REMARK   89  A    between atoms: _208  and  _209
REMARK   90  A    between atoms: _208  and  _211
REMARK   91  A    between atoms: _211  and  _212
REMARK   92  A    between atoms: _215  and  _217
REMARK   93  A    between atoms: _217  and  _218
REMARK   94  A    between atoms: _217  and  _220
REMARK   95  A    between atoms: _220  and  _221
REMARK   96  A    between atoms: _224  and  _226
REMARK   97  A    between atoms: _226  and  _227
REMARK   98  A    between atoms: _226  and  _229
REMARK   99  A    between atoms: _229  and  _230
REMARK  100  A    between atoms: _233  and  _235
REMARK  101  A    between atoms: _235  and  _236
REMARK  102  A    between atoms: _235  and  _238
REMARK  103  A    between atoms: _238  and  _239
REMARK  104  A    between atoms: _239  and  _240
REMARK  105  A    between atoms: _240  and  _241
REMARK  106  A    between atoms: _250  and  _252
REMARK  107  A    between atoms: _252  and  _253
REMARK  108  A    between atoms: _252  and  _255
REMARK  109  A    between atoms: _255  and  _256
REMARK  110  A    between atoms: _259  and  _261
REMARK  111  A    between atoms: _261  and  _262
REMARK  112  A    between atoms: _261  and  _264
REMARK  113  A    between atoms: _266  and  _268
REMARK  114  A    between atoms: _268  and  _269
REMARK  115  A    between atoms: _268  and  _271
REMARK  116  A    between atoms: _271  and  _272
REMARK  117  A    between atoms: _275  and  _277
REMARK  118  A    between atoms: _277  and  _278
REMARK  119  A    between atoms: _277  and  _280
REMARK  120  A    between atoms: _280  and  _281
REMARK  121  A    between atoms: _281  and  _282
REMARK  122  A    between atoms: _282  and  _283
REMARK  123  A    between atoms: _292  and  _294
REMARK  124  A    between atoms: _294  and  _295
REMARK  125  A    between atoms: _294  and  _297
REMARK  126  A    between atoms: _297  and  _298
REMARK  127  A    between atoms: _298  and  _299
REMARK  128  A    between atoms: _301  and  _303
REMARK  129  A    between atoms: _303  and  _304
REMARK  130  A    between atoms: _303  and  _306
REMARK  131  A    between atoms: _306  and  _307
REMARK  132  A    between atoms: _310  and  _312
REMARK  133  A    between atoms: _312  and  _313
REMARK  134  A    between atoms: _312  and  _315
REMARK  135  A    between atoms: _315  and  _316
REMARK  136  A    between atoms: _322  and  _324
REMARK  137  A    between atoms: _324  and  _325
REMARK  138  A    between atoms: _324  and  _327
REMARK  139  A    between atoms: _327  and  _328
REMARK  140  A    between atoms: _330  and  _332
REMARK  141  A    between atoms: _332  and  _333
REMARK  142  A    between atoms: _332  and  _335
REMARK  143  A    between atoms: _335  and  _336
REMARK  144  A    between atoms: _339  and  _341
REMARK  145  A    between atoms: _341  and  _342
REMARK  146  A    between atoms: _344  and  _346
REMARK  147  A    between atoms: _346  and  _347
REMARK  148  A    between atoms: _346  and  _349
REMARK  149  A    between atoms: _349  and  _350
REMARK  150  A    between atoms: _353  and  _355
REMARK  151  A    between atoms: _355  and  _356
REMARK  152  A    between atoms: _355  and  _358
REMARK  153  A    between atoms: _358  and  _359
REMARK  154  A    between atoms: _359  and  _360
REMARK  155  A    between atoms: _362  and  _364
REMARK  156  A    between atoms: _364  and  _365
REMARK  157  A    between atoms: _364  and  _367
REMARK  158  A    between atoms: _367  and  _368
REMARK  159  A    between atoms: _373  and  _375
REMARK  160  A    between atoms: _375  and  _376
REMARK  161  A    between atoms: _379  and  _381
REMARK  162  A    between atoms: _381  and  _382
REMARK  163  A    between atoms: _384  and  _386
REMARK  164  A    between atoms: _386  and  _387
REMARK  165  A    between atoms: _386  and  _389
REMARK  166  A    between atoms: _389  and  _390
REMARK  167  A    between atoms: _396  and  _398
REMARK  168  A    between atoms: _398  and  _399
REMARK  169  A    between atoms: _401  and  _403
REMARK  170  A    between atoms: _403  and  _404
REMARK  171  A    between atoms: _403  and  _406
REMARK  172  A    between atoms: _406  and  _407
REMARK  173  A    between atoms: _410  and  _412
REMARK  174  A    between atoms: _412  and  _413
REMARK  175  A    between atoms: _412  and  _415
REMARK  176  A    between atoms: _415  and  _416
REMARK  177  A    between atoms: _419  and  _421
REMARK  178  A    between atoms: _421  and  _422
REMARK  179  A    between atoms: _421  and  _424
REMARK  180  A    between atoms: _424  and  _425
REMARK  181  A    between atoms: _428  and  _430
REMARK  182  A    between atoms: _430  and  _431
REMARK  183  A    between atoms: _430  and  _433
REMARK  184  A    between atoms: _436  and  _438
REMARK  185  A    between atoms: _438  and  _439
REMARK  186  A    between atoms: _438  and  _441
REMARK  187  A    between atoms: _441  and  _442
REMARK  188  A    between atoms: _445  and  _447
REMARK  189  A    between atoms: _447  and  _448
REMARK  190  A    between atoms: _447  and  _450
REMARK  191  A    between atoms: _450  and  _451
REMARK  192  A    between atoms: _453  and  _455
REMARK  193  A    between atoms: _455  and  _456
REMARK  194  A    between atoms: _459  and  _461
REMARK  195  A    between atoms: _461  and  _462
REMARK  196  A    between atoms: _461  and  _464
REMARK  197  A    between atoms: _464  and  _465
REMARK  198  A    between atoms: _465  and  _466
REMARK  199  A    between atoms: _466  and  _467
REMARK  200  A    between atoms: _467  and  _468
REMARK  201  A    between atoms: _472  and  _474
REMARK  202  A    between atoms: _474  and  _475
REMARK  203  A    between atoms: _477  and  _479
REMARK  204  A    between atoms: _479  and  _480
REMARK  205  A    between atoms: _483  and  _485
REMARK  206  A    between atoms: _485  and  _486
REMARK  207  A    between atoms: _485  and  _488
REMARK  208  A    between atoms: _488  and  _489
REMARK  209  A    between atoms: _489  and  _490
REMARK  210  A    between atoms: _493  and  _495
REMARK  211  A    between atoms: _495  and  _496
REMARK  212  A    between atoms: _495  and  _498
REMARK  213  A    between atoms: _498  and  _499
REMARK  214  A    between atoms: _499  and  _500
REMARK  215  A    between atoms: _500  and  _501
REMARK  216  A    between atoms: _510  and  _512
REMARK  217  A    between atoms: _512  and  _513
REMARK  218  A    between atoms: _512  and  _515
REMARK  219  A    between atoms: _518  and  _520
REMARK  220  A    between atoms: _520  and  _521
REMARK  221  A    between atoms: _520  and  _523
REMARK  222  A    between atoms: _523  and  _524
REMARK  223  A    between atoms: _527  and  _529
REMARK  224  A    between atoms: _529  and  _530
REMARK  225  A    between atoms: _529  and  _532
REMARK  226  A    between atoms: _532  and  _533
REMARK  227  A    between atoms: _536  and  _538
REMARK  228  A    between atoms: _538  and  _539
REMARK  229  A    between atoms: _538  and  _541
REMARK  230  A    between atoms: _541  and  _542
REMARK  231  A    between atoms: _545  and  _547
REMARK  232  A    between atoms: _547  and  _548
REMARK  233  A    between atoms: _547  and  _550
REMARK  234  A    between atoms: _550  and  _551
REMARK  235  A    between atoms: _551  and  _552
REMARK  236  A    between atoms: _552  and  _553
REMARK  237  A    between atoms: _553  and  _554
REMARK  238  A    between atoms: _558  and  _560
REMARK  239  A    between atoms: _560  and  _561
REMARK  240  A    between atoms: _560  and  _563
REMARK  241  A    between atoms: _563  and  _564
REMARK  242  A    between atoms: _564  and  _565
REMARK  243  A    between atoms: _568  and  _569
REMARK  244  A    between atoms: _574  and  _576
REMARK  245  A    between atoms: _576  and  _577
REMARK  246  A    between atoms: _576  and  _579
REMARK  247  A    between atoms: _579  and  _580
REMARK  248  A    between atoms: _583  and  _585
REMARK  249  A    between atoms: _585  and  _586
REMARK  250  A    between atoms: _585  and  _588
REMARK  251  A    between atoms: _588  and  _589
REMARK  252  A    between atoms: _589  and  _590
REMARK  253  A    between atoms: _595  and  _597
REMARK  254  A    between atoms: _597  and  _598
REMARK  255  A    between atoms: _597  and  _600
REMARK  256  A    between atoms: _600  and  _601
REMARK  257  A    between atoms: _601  and  _602
REMARK  258  A    between atoms: _604  and  _606
REMARK  259  A    between atoms: _606  and  _607
REMARK  260  A    between atoms: _606  and  _609
REMARK  261  A    between atoms: _609  and  _610
REMARK                            x       y       z     vdW  Elec       q    Type
REMARK                         _______ _______ _______ _____ _____    ______ ____
ROOT
ATOM      1  C   MET A   1      53.398  22.580 103.907  0.00  0.00    +0.238 C 
ATOM      2  O   MET A   1      53.741  21.650 104.623  0.00  0.00    -0.274 OA
ATOM      3  N   LEU A   2      53.566  22.567 102.589  0.00  0.00    -0.298 N 
ATOM      4  H   LEU A   2      53.260  23.387 102.027  0.00  0.00    +0.150 HD
ENDROOT
BRANCH   1   5
ATOM      5  CA  MET A   1      52.734  23.813 104.514  0.00  0.00    +0.146 C 
BRANCH   5   6
ATOM      6  N   MET A   1      53.330  25.069 104.087  0.00  0.00    -0.238 NA
ATOM      7  H   MET A   1      52.743  25.767 103.587  0.00  0.00    +0.142 HD
ENDBRANCH   5   6
BRANCH   5   8
ATOM      8  CB  MET A   1      51.239  23.801 104.187  0.00  0.00    +0.038 C 
BRANCH   8   9
ATOM      9  CG  MET A   1      50.589  22.438 104.390  0.00  0.00    +0.060 C 
BRANCH   9  10
ATOM     10  SD  MET A   1      48.797  22.468 104.213  0.00  0.00    -0.139 S 
ATOM     11  CE  MET A   1      48.647  22.710 102.427  0.00  0.00    +0.069 C 
ENDBRANCH   9  10
ENDBRANCH   8   9
ENDBRANCH   5   8
ENDBRANCH   1   5
BRANCH   3  12
ATOM     12  CA  LEU A   2      54.173  21.420 101.915  0.00  0.00    +0.137 C 
BRANCH  12  13
ATOM     13  C   LEU A   2      55.693  21.590 101.781  0.00  0.00    +0.227 C 
ATOM     14  O   LEU A   2      56.389  20.715 101.268  0.00  0.00    -0.286 OA
ENDBRANCH  12  13
BRANCH  12  15
ATOM     15  CB  LEU A   2      53.520  21.214 100.531  0.00  0.00    +0.028 C 
BRANCH  15  16
ATOM     16  CG  LEU A   2      52.194  20.418 100.346  0.00  0.00    +0.002 C 
ATOM     17  CD2 LEU A   2      51.387  20.429 101.576  0.00  0.00    +0.000 C 
ATOM     18  CD1 LEU A   2      52.471  18.971  99.961  0.00  0.00    +0.000 C 
ENDBRANCH  15  16
ENDBRANCH  12  15
ENDBRANCH   3  12
TORSDOF 9
REMARK  Name = ../refined-set-2016/1xap/1xap_pocket.pdb
REMARK  261 active torsions:
REMARK  status: ('A' for Active; 'I' for Inactive)
REMARK    1  A    between atoms: _1  and  _3
REMARK    2  A    between atoms: _3  and  _4
REMARK    3  A    between atoms: _3  and  _6
REMARK    4  A    between atoms: _6  and  _7
REMARK    5  A    between atoms: _10  and  _12
REMARK    6  A    between atoms: _12  and  _13
REMARK    7  A    between atoms: _12  and  _15
REMARK    8  A    between atoms: _15  and  _16
REMARK    9  A    between atoms: _23  and  _24
REMARK   10  A    between atoms: _29  and  _31
REMARK   11  A    between atoms: _31  and  _32
REMARK   12  A    between atoms: _31  and  _34
REMARK   13  A    between atoms: _34  and  _35
REMARK   14  A    between atoms: _38  and  _40
REMARK   15  A    between atoms: _40  and  _41
REMARK   16  A    between atoms: _40  and  _43
REMARK   17  A    between atoms: _43  and  _44
REMARK   18  A    between atoms: _54  and  _56
REMARK   19  A    between atoms: _56  and  _57
REMARK   20  A    between atoms: _56  and  _59
REMARK   21  A    between atoms: _59  and  _60
REMARK   22  A    between atoms: _60  and  _61
REMARK   23  A    between atoms: _61  and  _62
REMARK   24  A    between atoms: _62  and  _63
REMARK   25  A    between atoms: _67  and  _69
REMARK   26  A    between atoms: _69  and  _70
REMARK   27  A    between atoms: _69  and  _72
REMARK   28  A    between atoms: _72  and  _73
REMARK   29  A    between atoms: _79  and  _81
REMARK   30  A    between atoms: _81  and  _82
REMARK   31  A    between atoms: _81  and  _84
REMARK   32  A    between atoms: _84  and  _85
REMARK   33  A    between atoms: _87  and  _89
REMARK   34  A    between atoms: _89  and  _90
REMARK   35  A    between atoms: _89  and  _92
REMARK   36  A    between atoms: _92  and  _93
REMARK   37  A    between atoms: _93  and  _94
REMARK   38  A    between atoms: _97  and  _99
REMARK   39  A    between atoms: _99  and  _100
REMARK   40  A    between atoms: _99  and  _102
REMARK   41  A    between atoms: _102  and  _103
REMARK   42  A    between atoms: _106  and  _108
REMARK   43  A    between atoms: _108  and  _109
REMARK   44  A    between atoms: _112  and  _114
REMARK   45  A    between atoms: _114  and  _115
REMARK   46  A    between atoms: _114  and  _117
REMARK   47  A    between atoms: _117  and  _118
REMARK   48  A    between atoms: _121  and  _123
REMARK   49  A    between atoms: _123  and  _124
REMARK   50  A    between atoms: _123  and  _126
REMARK   51  A    between atoms: _126  and  _127
REMARK   52  A    between atoms: _127  and  _128
REMARK   53  A    between atoms: _128  and  _129
REMARK   54  A    between atoms: _129  and  _130
REMARK   55  A    between atoms: _134  and  _136
REMARK   56  A    between atoms: _136  and  _137
REMARK   57  A    between atoms: _136  and  _139
REMARK   58  A    between atoms: _141  and  _143
REMARK   59  A    between atoms: _143  and  _144
REMARK   60  A    between atoms: _143  and  _146
REMARK   61  A    between atoms: _146  and  _147
REMARK   62  A    between atoms: _150  and  _152
REMARK   63  A    between atoms: _152  and  _153
REMARK   64  A    between atoms: _152  and  _155
REMARK   65  A    between atoms: _155  and  _156
REMARK   66  A    between atoms: _156  and  _157
REMARK   67  A    between atoms: _157  and  _158
REMARK   68  A    between atoms: _158  and  _159
REMARK   69  A    between atoms: _163  and  _165
REMARK   70  A    between atoms: _165  and  _166
REMARK   71  A    between atoms: _165  and  _168
REMARK   72  A    between atoms: _168  and  _169
REMARK   73  A    between atoms: _172  and  _174
REMARK   74  A    between atoms: _174  and  _175
REMARK   75  A    between atoms: _174  and  _177
REMARK   76  A    between atoms: _179  and  _181
REMARK   77  A    between atoms: _181  and  _182
REMARK   78  A    between atoms: _181  and  _184
REMARK   79  A    between atoms: _184  and  _185
REMARK   80  A    between atoms: _188  and  _190
REMARK   81  A    between atoms: _190  and  _191
REMARK   82  A    between atoms: _190  and  _193
REMARK   83  A    between atoms: _193  and  _194
REMARK   84  A    between atoms: _197  and  _199
REMARK   85  A    between atoms: _199  and  _200
REMARK   86  A    between atoms: _199  and  _202
REMARK   87  A    between atoms: _202  and  _203
REMARK   88  A    between atoms: _206  and  _208
REMARK   89  A    between atoms: _208  and  _209
REMARK   90  A    between atoms: _208  and  _211
REMARK   91  A    between atoms: _211  and  _212
REMARK   92  A    between atoms: _215  and  _217
REMARK   93  A    between atoms: _217  and  _218
REMARK   94  A    between atoms: _217  and  _220
REMARK   95  A    between atoms: _220  and  _221
REMARK   96  A    between atoms: _224  and  _226
REMARK   97  A    between atoms: _226  and  _227
REMARK   98  A    between atoms: _226  and  _229
REMARK   99  A    between atoms: _229  and  _230
REMARK  100  A    between atoms: _233  and  _235
REMARK  101  A    between atoms: _235  and  _236
REMARK  102  A    between atoms: _235  and  _238
REMARK  103  A    between atoms: _238  and  _239
REMARK  104  A    between atoms: _239  and  _240
REMARK  105  A    between atoms: _240  and  _241
REMARK  106  A    between atoms: _250  and  _252
REMARK  107  A    between atoms: _252  and  _253
REMARK  108  A    between atoms: _252  and  _255
REMARK  109  A    between atoms: _255  and  _256
REMARK  110  A    between atoms: _259  and  _261
REMARK  111  A    between atoms: _261  and  _262
REMARK  112  A    between atoms: _261  and  _264
REMARK  113  A    between atoms: _266  and  _268
REMARK  114  A    between atoms: _268  and  _269
REMARK  115  A    between atoms: _268  and  _271
REMARK  116  A    between atoms: _271  and  _272
REMARK  117  A    between atoms: _275  and  _277
REMARK  118  A    between atoms: _277  and  _278
REMARK  119  A    between atoms: _277  and  _280
REMARK  120  A    between atoms: _280  and  _281
REMARK  121  A    between atoms: _281  and  _282
REMARK  122  A    between atoms: _282  and  _283
REMARK  123  A    between atoms: _292  and  _294
REMARK  124  A    between atoms: _294  and  _295
REMARK  125  A    between atoms: _294  and  _297
REMARK  126  A    between atoms: _297  and  _298
REMARK  127  A    between atoms: _298  and  _299
REMARK  128  A    between atoms: _301  and  _303
REMARK  129  A    between atoms: _303  and  _304
REMARK  130  A    between atoms: _303  and  _306
REMARK  131  A    between atoms: _306  and  _307
REMARK  132  A    between atoms: _310  and  _312
REMARK  133  A    between atoms: _312  and  _313
REMARK  134  A    between atoms: _312  and  _315
REMARK  135  A    between atoms: _315  and  _316
REMARK  136  A    between atoms: _322  and  _324
REMARK  137  A    between atoms: _324  and  _325
REMARK  138  A    between atoms: _324  and  _327
REMARK  139  A    between atoms: _327  and  _328
REMARK  140  A    between atoms: _330  and  _332
REMARK  141  A    between atoms: _332  and  _333
REMARK  142  A    between atoms: _332  and  _335
REMARK  143  A    between atoms: _335  and  _336
REMARK  144  A    between atoms: _339  and  _341
REMARK  145  A    between atoms: _341  and  _342
REMARK  146  A    between atoms: _344  and  _346
REMARK  147  A    between atoms: _346  and  _347
REMARK  148  A    between atoms: _346  and  _349
REMARK  149  A    between atoms: _349  and  _350
REMARK  150  A    between atoms: _353  and  _355
REMARK  151  A    between atoms: _355  and  _356
REMARK  152  A    between atoms: _355  and  _358
REMARK  153  A    between atoms: _358  and  _359
REMARK  154  A    between atoms: _359  and  _360
REMARK  155  A    between atoms: _362  and  _364
REMARK  156  A    between atoms: _364  and  _365
REMARK  157  A    between atoms: _364  and  _367
REMARK  158  A    between atoms: _367  and  _368
REMARK  159  A    between atoms: _373  and  _375
REMARK  160  A    between atoms: _375  and  _376
REMARK  161  A    between atoms: _379  and  _381
REMARK  162  A    between atoms: _381  and  _382
REMARK  163  A    between atoms: _384  and  _386
REMARK  164  A    between atoms: _386  and  _387
REMARK  165  A    between atoms: _386  and  _389
REMARK  166  A    between atoms: _389  and  _390
REMARK  167  A    between atoms: _396  and  _398
REMARK  168  A    between atoms: _398  and  _399
REMARK  169  A    between atoms: _401  and  _403
REMARK  170  A    between atoms: _403  and  _404
REMARK  171  A    between atoms: _403  and  _406
REMARK  172  A    between atoms: _406  and  _407
REMARK  173  A    between atoms: _410  and  _412
REMARK  174  A    between atoms: _412  and  _413
REMARK  175  A    between atoms: _412  and  _415
REMARK  176  A    between atoms: _415  and  _416
REMARK  177  A    between atoms: _419  and  _421
REMARK  178  A    between atoms: _421  and  _422
REMARK  179  A    between atoms: _421  and  _424
REMARK  180  A    between atoms: _424  and  _425
REMARK  181  A    between atoms: _428  and  _430
REMARK  182  A    between atoms: _430  and  _431
REMARK  183  A    between atoms: _430  and  _433
REMARK  184  A    between atoms: _436  and  _438
REMARK  185  A    between atoms: _438  and  _439
REMARK  186  A    between atoms: _438  and  _441
REMARK  187  A    between atoms: _441  and  _442
REMARK  188  A    between atoms: _445  and  _447
REMARK  189  A    between atoms: _447  and  _448
REMARK  190  A    between atoms: _447  and  _450
REMARK  191  A    between atoms: _450  and  _451
REMARK  192  A    between atoms: _453  and  _455
REMARK  193  A    between atoms: _455  and  _456
REMARK  194  A    between atoms: _459  and  _461
REMARK  195  A    between atoms: _461  and  _462
REMARK  196  A    between atoms: _461  and  _464
REMARK  197  A    between atoms: _464  and  _465
REMARK  198  A    between atoms: _465  and  _466
REMARK  199  A    between atoms: _466  and  _467
REMARK  200  A    between atoms: _467  and  _468
REMARK  201  A    between atoms: _472  and  _474
REMARK  202  A    between atoms: _474  and  _475
REMARK  203  A    between atoms: _477  and  _479
REMARK  204  A    between atoms: _479  and  _480
REMARK  205  A    between atoms: _483  and  _485
REMARK  206  A    between atoms: _485  and  _486
REMARK  207  A    between atoms: _485  and  _488
REMARK  208  A    between atoms: _488  and  _489
REMARK  209  A    between atoms: _489  and  _490
REMARK  210  A    between atoms: _493  and  _495
REMARK  211  A    between atoms: _495  and  _496
REMARK  212  A    between atoms: _495  and  _498
REMARK  213  A    between atoms: _498  and  _499
REMARK  214  A    between atoms: _499  and  _500
REMARK  215  A    between atoms: _500  and  _501
REMARK  216  A    between atoms: _510  and  _512
REMARK  217  A    between atoms: _512  and  _513
REMARK  218  A    between atoms: _512  and  _515
REMARK  219  A    between atoms: _518  and  _520
REMARK  220  A    between atoms: _520  and  _521
REMARK  221  A    between atoms: _520  and  _523
REMARK  222  A    between atoms: _523  and  _524
REMARK  223  A    between atoms: _527  and  _529
REMARK  224  A    between atoms: _529  and  _530
REMARK  225  A    between atoms: _529  and  _532
REMARK  226  A    between atoms: _532  and  _533
REMARK  227  A    between atoms: _536  and  _538
REMARK  228  A    between atoms: _538  and  _539
REMARK  229  A    between atoms: _538  and  _541
REMARK  230  A    between atoms: _541  and  _542
REMARK  231  A    between atoms: _545  and  _547
REMARK  232  A    between atoms: _547  and  _548
REMARK  233  A    between atoms: _547  and  _550
REMARK  234  A    between atoms: _550  and  _551
REMARK  235  A    between atoms: _551  and  _552
REMARK  236  A    between atoms: _552  and  _553
REMARK  237  A    between atoms: _553  and  _554
REMARK  238  A    between atoms: _558  and  _560
REMARK  239  A    between atoms: _560  and  _561
REMARK  240  A    between atoms: _560  and  _563
REMARK  241  A    between atoms: _563  and  _564
REMARK  242  A    between atoms: _564  and  _565
REMARK  243  A    between atoms: _568  and  _569
REMARK  244  A    between atoms: _574  and  _576
REMARK  245  A    between atoms: _576  and  _577
REMARK  246  A    between atoms: _576  and  _579
REMARK  247  A    between atoms: _579  and  _580
REMARK  248  A    between atoms: _583  and  _585
REMARK  249  A    between atoms: _585  and  _586
REMARK  250  A    between atoms: _585  and  _588
REMARK  251  A    between atoms: _588  and  _589
REMARK  252  A    between atoms: _589  and  _590
REMARK  253  A    between atoms: _595  and  _597
REMARK  254  A    between atoms: _597  and  _598
REMARK  255  A    between atoms: _597  and  _600
REMARK  256  A    between atoms: _600  and  _601
REMARK  257  A    between atoms: _601  and  _602
REMARK  258  A    between atoms: _604  and  _606
REMARK  259  A    between atoms: _606  and  _607
REMARK  260  A    between atoms: _606  and  _609
REMARK  261  A    between atoms: _609  and  _610
REMARK                            x       y       z     vdW  Elec       q    Type
REMARK                         _______ _______ _______ _____ _____    ______ ____
ROOT
ATOM      1  O   HOH     1      43.338  20.416  88.589  0.00  0.00    +0.000 OA
ENDROOT
TORSDOF 0
REMARK  Name = ../refined-set-2016/1xap/1xap_pocket.pdb
REMARK  261 active torsions:
REMARK  status: ('A' for Active; 'I' for Inactive)
REMARK    1  A    between atoms: _1  and  _3
REMARK    2  A    between atoms: _3  and  _4
REMARK    3  A    between atoms: _3  and  _6
REMARK    4  A    between atoms: _6  and  _7
REMARK    5  A    between atoms: _10  and  _12
REMARK    6  A    between atoms: _12  and  _13
REMARK    7  A    between atoms: _12  and  _15
REMARK    8  A    between atoms: _15  and  _16
REMARK    9  A    between atoms: _23  and  _24
REMARK   10  A    between atoms: _29  and  _31
REMARK   11  A    between atoms: _31  and  _32
REMARK   12  A    between atoms: _31  and  _34
REMARK   13  A    between atoms: _34  and  _35
REMARK   14  A    between atoms: _38  and  _40
REMARK   15  A    between atoms: _40  and  _41
REMARK   16  A    between atoms: _40  and  _43
REMARK   17  A    between atoms: _43  and  _44
REMARK   18  A    between atoms: _54  and  _56
REMARK   19  A    between atoms: _56  and  _57
REMARK   20  A    between atoms: _56  and  _59
REMARK   21  A    between atoms: _59  and  _60
REMARK   22  A    between atoms: _60  and  _61
REMARK   23  A    between atoms: _61  and  _62
REMARK   24  A    between atoms: _62  and  _63
REMARK   25  A    between atoms: _67  and  _69
REMARK   26  A    between atoms: _69  and  _70
REMARK   27  A    between atoms: _69  and  _72
REMARK   28  A    between atoms: _72  and  _73
REMARK   29  A    between atoms: _79  and  _81
REMARK   30  A    between atoms: _81  and  _82
REMARK   31  A    between atoms: _81  and  _84
REMARK   32  A    between atoms: _84  and  _85
REMARK   33  A    between atoms: _87  and  _89
REMARK   34  A    between atoms: _89  and  _90
REMARK   35  A    between atoms: _89  and  _92
REMARK   36  A    between atoms: _92  and  _93
REMARK   37  A    between atoms: _93  and  _94
REMARK   38  A    between atoms: _97  and  _99
REMARK   39  A    between atoms: _99  and  _100
REMARK   40  A    between atoms: _99  and  _102
REMARK   41  A    between atoms: _102  and  _103
REMARK   42  A    between atoms: _106  and  _108
REMARK   43  A    between atoms: _108  and  _109
REMARK   44  A    between atoms: _112  and  _114
REMARK   45  A    between atoms: _114  and  _115
REMARK   46  A    between atoms: _114  and  _117
REMARK   47  A    between atoms: _117  and  _118
REMARK   48  A    between atoms: _121  and  _123
REMARK   49  A    between atoms: _123  and  _124
REMARK   50  A    between atoms: _123  and  _126
REMARK   51  A    between atoms: _126  and  _127
REMARK   52  A    between atoms: _127  and  _128
REMARK   53  A    between atoms: _128  and  _129
REMARK   54  A    between atoms: _129  and  _130
REMARK   55  A    between atoms: _134  and  _136
REMARK   56  A    between atoms: _136  and  _137
REMARK   57  A    between atoms: _136  and  _139
REMARK   58  A    between atoms: _141  and  _143
REMARK   59  A    between atoms: _143  and  _144
REMARK   60  A    between atoms: _143  and  _146
REMARK   61  A    between atoms: _146  and  _147
REMARK   62  A    between atoms: _150  and  _152
REMARK   63  A    between atoms: _152  and  _153
REMARK   64  A    between atoms: _152  and  _155
REMARK   65  A    between atoms: _155  and  _156
REMARK   66  A    between atoms: _156  and  _157
REMARK   67  A    between atoms: _157  and  _158
REMARK   68  A    between atoms: _158  and  _159
REMARK   69  A    between atoms: _163  and  _165
REMARK   70  A    between atoms: _165  and  _166
REMARK   71  A    between atoms: _165  and  _168
REMARK   72  A    between atoms: _168  and  _169
REMARK   73  A    between atoms: _172  and  _174
REMARK   74  A    between atoms: _174  and  _175
REMARK   75  A    between atoms: _174  and  _177
REMARK   76  A    between atoms: _179  and  _181
REMARK   77  A    between atoms: _181  and  _182
REMARK   78  A    between atoms: _181  and  _184
REMARK   79  A    between atoms: _184  and  _185
REMARK   80  A    between atoms: _188  and  _190
REMARK   81  A    between atoms: _190  and  _191
REMARK   82  A    between atoms: _190  and  _193
REMARK   83  A    between atoms: _193  and  _194
REMARK   84  A    between atoms: _197  and  _199
REMARK   85  A    between atoms: _199  and  _200
REMARK   86  A    between atoms: _199  and  _202
REMARK   87  A    between atoms: _202  and  _203
REMARK   88  A    between atoms: _206  and  _208
REMARK   89  A    between atoms: _208  and  _209
REMARK   90  A    between atoms: _208  and  _211
REMARK   91  A    between atoms: _211  and  _212
REMARK   92  A    between atoms: _215  and  _217
REMARK   93  A    between atoms: _217  and  _218
REMARK   94  A    between atoms: _217  and  _220
REMARK   95  A    between atoms: _220  and  _221
REMARK   96  A    between atoms: _224  and  _226
REMARK   97  A    between atoms: _226  and  _227
REMARK   98  A    between atoms: _226  and  _229
REMARK   99  A    between atoms: _229  and  _230
REMARK  100  A    between atoms: _233  and  _235
REMARK  101  A    between atoms: _235  and  _236
REMARK  102  A    between atoms: _235  and  _238
REMARK  103  A    between atoms: _238  and  _239
REMARK  104  A    between atoms: _239  and  _240
REMARK  105  A    between atoms: _240  and  _241
REMARK  106  A    between atoms: _250  and  _252
REMARK  107  A    between atoms: _252  and  _253
REMARK  108  A    between atoms: _252  and  _255
REMARK  109  A    between atoms: _255  and  _256
REMARK  110  A    between atoms: _259  and  _261
REMARK  111  A    between atoms: _261  and  _262
REMARK  112  A    between atoms: _261  and  _264
REMARK  113  A    between atoms: _266  and  _268
REMARK  114  A    between atoms: _268  and  _269
REMARK  115  A    between atoms: _268  and  _271
REMARK  116  A    between atoms: _271  and  _272
REMARK  117  A    between atoms: _275  and  _277
REMARK  118  A    between atoms: _277  and  _278
REMARK  119  A    between atoms: _277  and  _280
REMARK  120  A    between atoms: _280  and  _281
REMARK  121  A    between atoms: _281  and  _282
REMARK  122  A    between atoms: _282  and  _283
REMARK  123  A    between atoms: _292  and  _294
REMARK  124  A    between atoms: _294  and  _295
REMARK  125  A    between atoms: _294  and  _297
REMARK  126  A    between atoms: _297  and  _298
REMARK  127  A    between atoms: _298  and  _299
REMARK  128  A    between atoms: _301  and  _303
REMARK  129  A    between atoms: _303  and  _304
REMARK  130  A    between atoms: _303  and  _306
REMARK  131  A    between atoms: _306  and  _307
REMARK  132  A    between atoms: _310  and  _312
REMARK  133  A    between atoms: _312  and  _313
REMARK  134  A    between atoms: _312  and  _315
REMARK  135  A    between atoms: _315  and  _316
REMARK  136  A    between atoms: _322  and  _324
REMARK  137  A    between atoms: _324  and  _325
REMARK  138  A    between atoms: _324  and  _327
REMARK  139  A    between atoms: _327  and  _328
REMARK  140  A    between atoms: _330  and  _332
REMARK  141  A    between atoms: _332  and  _333
REMARK  142  A    between atoms: _332  and  _335
REMARK  143  A    between atoms: _335  and  _336
REMARK  144  A    between atoms: _339  and  _341
REMARK  145  A    between atoms: _341  and  _342
REMARK  146  A    between atoms: _344  and  _346
REMARK  147  A    between atoms: _346  and  _347
REMARK  148  A    between atoms: _346  and  _349
REMARK  149  A    between atoms: _349  and  _350
REMARK  150  A    between atoms: _353  and  _355
REMARK  151  A    between atoms: _355  and  _356
REMARK  152  A    between atoms: _355  and  _358
REMARK  153  A    between atoms: _358  and  _359
REMARK  154  A    between atoms: _359  and  _360
REMARK  155  A    between atoms: _362  and  _364
REMARK  156  A    between atoms: _364  and  _365
REMARK  157  A    between atoms: _364  and  _367
REMARK  158  A    between atoms: _367  and  _368
REMARK  159  A    between atoms: _373  and  _375
REMARK  160  A    between atoms: _375  and  _376
REMARK  161  A    between atoms: _379  and  _381
REMARK  162  A    between atoms: _381  and  _382
REMARK  163  A    between atoms: _384  and  _386
REMARK  164  A    between atoms: _386  and  _387
REMARK  165  A    between atoms: _386  and  _389
REMARK  166  A    between atoms: _389  and  _390
REMARK  167  A    between atoms: _396  and  _398
REMARK  168  A    between atoms: _398  and  _399
REMARK  169  A    between atoms: _401  and  _403
REMARK  170  A    between atoms: _403  and  _404
REMARK  171  A    between atoms: _403  and  _406
REMARK  172  A    between atoms: _406  and  _407
REMARK  173  A    between atoms: _410  and  _412
REMARK  174  A    between atoms: _412  and  _413
REMARK  175  A    between atoms: _412  and  _415
REMARK  176  A    between atoms: _415  and  _416
REMARK  177  A    between atoms: _419  and  _421
REMARK  178  A    between atoms: _421  and  _422
REMARK  179  A    between atoms: _421  and  _424
REMARK  180  A    between atoms: _424  and  _425
REMARK  181  A    between atoms: _428  and  _430
REMARK  182  A    between atoms: _430  and  _431
REMARK  183  A    between atoms: _430  and  _433
REMARK  184  A    between atoms: _436  and  _438
REMARK  185  A    between atoms: _438  and  _439
REMARK  186  A    between atoms: _438  and  _441
REMARK  187  A    between atoms: _441  and  _442
REMARK  188  A    between atoms: _445  and  _447
REMARK  189  A    between atoms: _447  and  _448
REMARK  190  A    between atoms: _447  and  _450
REMARK  191  A    between atoms: _450  and  _451
REMARK  192  A    between atoms: _453  and  _455
REMARK  193  A    between atoms: _455  and  _456
REMARK  194  A    between atoms: _459  and  _461
REMARK  195  A    between atoms: _461  and  _462
REMARK  196  A    between atoms: _461  and  _464
REMARK  197  A    between atoms: _464  and  _465
REMARK  198  A    between atoms: _465  and  _466
REMARK  199  A    between atoms: _466  and  _467
REMARK  200  A    between atoms: _467  and  _468
REMARK  201  A    between atoms: _472  and  _474
REMARK  202  A    between atoms: _474  and  _475
REMARK  203  A    between atoms: _477  and  _479
REMARK  204  A    between atoms: _479  and  _480
REMARK  205  A    between atoms: _483  and  _485
REMARK  206  A    between atoms: _485  and  _486
REMARK  207  A    between atoms: _485  and  _488
REMARK  208  A    between atoms: _488  and  _489
REMARK  209  A    between atoms: _489  and  _490
REMARK  210  A    between atoms: _493  and  _495
REMARK  211  A    between atoms: _495  and  _496
REMARK  212  A    between atoms: _495  and  _498
REMARK  213  A    between atoms: _498  and  _499
REMARK  214  A    between atoms: _499  and  _500
REMARK  215  A    between atoms: _500  and  _501
REMARK  216  A    between atoms: _510  and  _512
REMARK  217  A    between atoms: _512  and  _513
REMARK  218  A    between atoms: _512  and  _515
REMARK  219  A    between atoms: _518  and  _520
REMARK  220  A    between atoms: _520  and  _521
REMARK  221  A    between atoms: _520  and  _523
REMARK  222  A    between atoms: _523  and  _524
REMARK  223  A    between atoms: _527  and  _529
REMARK  224  A    between atoms: _529  and  _530
REMARK  225  A    between atoms: _529  and  _532
REMARK  226  A    between atoms: _532  and  _533
REMARK  227  A    between atoms: _536  and  _538
REMARK  228  A    between atoms: _538  and  _539
REMARK  229  A    between atoms: _538  and  _541
REMARK  230  A    between atoms: _541  and  _542
REMARK  231  A    between atoms: _545  and  _547
REMARK  232  A    between atoms: _547  and  _548
REMARK  233  A    between atoms: _547  and  _550
REMARK  234  A    between atoms: _550  and  _551
REMARK  235  A    between atoms: _551  and  _552
REMARK  236  A    between atoms: _552  and  _553
REMARK  237  A    between atoms: _553  and  _554
REMARK  238  A    between atoms: _558  and  _560
REMARK  239  A    between atoms: _560  and  _561
REMARK  240  A    between atoms: _560  and  _563
REMARK  241  A    between atoms: _563  and  _564
REMARK  242  A    between atoms: _564  and  _565
REMARK  243  A    between atoms: _568  and  _569
REMARK  244  A    between atoms: _574  and  _576
REMARK  245  A    between atoms: _576  and  _577
REMARK  246  A    between atoms: _576  and  _579
REMARK  247  A    between atoms: _579  and  _580
REMARK  248  A    between atoms: _583  and  _585
REMARK  249  A    between atoms: _585  and  _586
REMARK  250  A    between atoms: _585  and  _588
REMARK  251  A    between atoms: _588  and  _589
REMARK  252  A    between atoms: _589  and  _590
REMARK  253  A    between atoms: _595  and  _597
REMARK  254  A    between atoms: _597  and  _598
REMARK  255  A    between atoms: _597  and  _600
REMARK  256  A    between atoms: _600  and  _601
REMARK  257  A    between atoms: _601  and  _602
REMARK  258  A    between atoms: _604  and  _606
REMARK  259  A    between atoms: _606  and  _607
REMARK  260  A    between atoms: _606  and  _609
REMARK  261  A    between atoms: _609  and  _610
REMARK                            x       y       z     vdW  Elec       q    Type
REMARK                         _______ _______ _______ _____ _____    ______ ____
ROOT
ATOM      1  O   HOH     1      50.078  12.277  93.948  0.00  0.00    +0.000 OA
ENDROOT
TORSDOF 0
REMARK  Name = ../refined-set-2016/1xap/1xap_pocket.pdb
REMARK  261 active torsions:
REMARK  status: ('A' for Active; 'I' for Inactive)
REMARK    1  A    between atoms: _1  and  _3
REMARK    2  A    between atoms: _3  and  _4
REMARK    3  A    between atoms: _3  and  _6
REMARK    4  A    between atoms: _6  and  _7
REMARK    5  A    between atoms: _10  and  _12
REMARK    6  A    between atoms: _12  and  _13
REMARK    7  A    between atoms: _12  and  _15
REMARK    8  A    between atoms: _15  and  _16
REMARK    9  A    between atoms: _23  and  _24
REMARK   10  A    between atoms: _29  and  _31
REMARK   11  A    between atoms: _31  and  _32
REMARK   12  A    between atoms: _31  and  _34
REMARK   13  A    between atoms: _34  and  _35
REMARK   14  A    between atoms: _38  and  _40
REMARK   15  A    between atoms: _40  and  _41
REMARK   16  A    between atoms: _40  and  _43
REMARK   17  A    between atoms: _43  and  _44
REMARK   18  A    between atoms: _54  and  _56
REMARK   19  A    between atoms: _56  and  _57
REMARK   20  A    between atoms: _56  and  _59
REMARK   21  A    between atoms: _59  and  _60
REMARK   22  A    between atoms: _60  and  _61
REMARK   23  A    between atoms: _61  and  _62
REMARK   24  A    between atoms: _62  and  _63
REMARK   25  A    between atoms: _67  and  _69
REMARK   26  A    between atoms: _69  and  _70
REMARK   27  A    between atoms: _69  and  _72
REMARK   28  A    between atoms: _72  and  _73
REMARK   29  A    between atoms: _79  and  _81
REMARK   30  A    between atoms: _81  and  _82
REMARK   31  A    between atoms: _81  and  _84
REMARK   32  A    between atoms: _84  and  _85
REMARK   33  A    between atoms: _87  and  _89
REMARK   34  A    between atoms: _89  and  _90
REMARK   35  A    between atoms: _89  and  _92
REMARK   36  A    between atoms: _92  and  _93
REMARK   37  A    between atoms: _93  and  _94
REMARK   38  A    between atoms: _97  and  _99
REMARK   39  A    between atoms: _99  and  _100
REMARK   40  A    between atoms: _99  and  _102
REMARK   41  A    between atoms: _102  and  _103
REMARK   42  A    between atoms: _106  and  _108
REMARK   43  A    between atoms: _108  and  _109
REMARK   44  A    between atoms: _112  and  _114
REMARK   45  A    between atoms: _114  and  _115
REMARK   46  A    between atoms: _114  and  _117
REMARK   47  A    between atoms: _117  and  _118
REMARK   48  A    between atoms: _121  and  _123
REMARK   49  A    between atoms: _123  and  _124
REMARK   50  A    between atoms: _123  and  _126
REMARK   51  A    between atoms: _126  and  _127
REMARK   52  A    between atoms: _127  and  _128
REMARK   53  A    between atoms: _128  and  _129
REMARK   54  A    between atoms: _129  and  _130
REMARK   55  A    between atoms: _134  and  _136
REMARK   56  A    between atoms: _136  and  _137
REMARK   57  A    between atoms: _136  and  _139
REMARK   58  A    between atoms: _141  and  _143
REMARK   59  A    between atoms: _143  and  _144
REMARK   60  A    between atoms: _143  and  _146
REMARK   61  A    between atoms: _146  and  _147
REMARK   62  A    between atoms: _150  and  _152
REMARK   63  A    between atoms: _152  and  _153
REMARK   64  A    between atoms: _152  and  _155
REMARK   65  A    between atoms: _155  and  _156
REMARK   66  A    between atoms: _156  and  _157
REMARK   67  A    between atoms: _157  and  _158
REMARK   68  A    between atoms: _158  and  _159
REMARK   69  A    between atoms: _163  and  _165
REMARK   70  A    between atoms: _165  and  _166
REMARK   71  A    between atoms: _165  and  _168
REMARK   72  A    between atoms: _168  and  _169
REMARK   73  A    between atoms: _172  and  _174
REMARK   74  A    between atoms: _174  and  _175
REMARK   75  A    between atoms: _174  and  _177
REMARK   76  A    between atoms: _179  and  _181
REMARK   77  A    between atoms: _181  and  _182
REMARK   78  A    between atoms: _181  and  _184
REMARK   79  A    between atoms: _184  and  _185
REMARK   80  A    between atoms: _188  and  _190
REMARK   81  A    between atoms: _190  and  _191
REMARK   82  A    between atoms: _190  and  _193
REMARK   83  A    between atoms: _193  and  _194
REMARK   84  A    between atoms: _197  and  _199
REMARK   85  A    between atoms: _199  and  _200
REMARK   86  A    between atoms: _199  and  _202
REMARK   87  A    between atoms: _202  and  _203
REMARK   88  A    between atoms: _206  and  _208
REMARK   89  A    between atoms: _208  and  _209
REMARK   90  A    between atoms: _208  and  _211
REMARK   91  A    between atoms: _211  and  _212
REMARK   92  A    between atoms: _215  and  _217
REMARK   93  A    between atoms: _217  and  _218
REMARK   94  A    between atoms: _217  and  _220
REMARK   95  A    between atoms: _220  and  _221
REMARK   96  A    between atoms: _224  and  _226
REMARK   97  A    between atoms: _226  and  _227
REMARK   98  A    between atoms: _226  and  _229
REMARK   99  A    between atoms: _229  and  _230
REMARK  100  A    between atoms: _233  and  _235
REMARK  101  A    between atoms: _235  and  _236
REMARK  102  A    between atoms: _235  and  _238
REMARK  103  A    between atoms: _238  and  _239
REMARK  104  A    between atoms: _239  and  _240
REMARK  105  A    between atoms: _240  and  _241
REMARK  106  A    between atoms: _250  and  _252
REMARK  107  A    between atoms: _252  and  _253
REMARK  108  A    between atoms: _252  and  _255
REMARK  109  A    between atoms: _255  and  _256
REMARK  110  A    between atoms: _259  and  _261
REMARK  111  A    between atoms: _261  and  _262
REMARK  112  A    between atoms: _261  and  _264
REMARK  113  A    between atoms: _266  and  _268
REMARK  114  A    between atoms: _268  and  _269
REMARK  115  A    between atoms: _268  and  _271
REMARK  116  A    between atoms: _271  and  _272
REMARK  117  A    between atoms: _275  and  _277
REMARK  118  A    between atoms: _277  and  _278
REMARK  119  A    between atoms: _277  and  _280
REMARK  120  A    between atoms: _280  and  _281
REMARK  121  A    between atoms: _281  and  _282
REMARK  122  A    between atoms: _282  and  _283
REMARK  123  A    between atoms: _292  and  _294
REMARK  124  A    between atoms: _294  and  _295
REMARK  125  A    between atoms: _294  and  _297
REMARK  126  A    between atoms: _297  and  _298
REMARK  127  A    between atoms: _298  and  _299
REMARK  128  A    between atoms: _301  and  _303
REMARK  129  A    between atoms: _303  and  _304
REMARK  130  A    between atoms: _303  and  _306
REMARK  131  A    between atoms: _306  and  _307
REMARK  132  A    between atoms: _310  and  _312
REMARK  133  A    between atoms: _312  and  _313
REMARK  134  A    between atoms: _312  and  _315
REMARK  135  A    between atoms: _315  and  _316
REMARK  136  A    between atoms: _322  and  _324
REMARK  137  A    between atoms: _324  and  _325
REMARK  138  A    between atoms: _324  and  _327
REMARK  139  A    between atoms: _327  and  _328
REMARK  140  A    between atoms: _330  and  _332
REMARK  141  A    between atoms: _332  and  _333
REMARK  142  A    between atoms: _332  and  _335
REMARK  143  A    between atoms: _335  and  _336
REMARK  144  A    between atoms: _339  and  _341
REMARK  145  A    between atoms: _341  and  _342
REMARK  146  A    between atoms: _344  and  _346
REMARK  147  A    between atoms: _346  and  _347
REMARK  148  A    between atoms: _346  and  _349
REMARK  149  A    between atoms: _349  and  _350
REMARK  150  A    between atoms: _353  and  _355
REMARK  151  A    between atoms: _355  and  _356
REMARK  152  A    between atoms: _355  and  _358
REMARK  153  A    between atoms: _358  and  _359
REMARK  154  A    between atoms: _359  and  _360
REMARK  155  A    between atoms: _362  and  _364
REMARK  156  A    between atoms: _364  and  _365
REMARK  157  A    between atoms: _364  and  _367
REMARK  158  A    between atoms: _367  and  _368
REMARK  159  A    between atoms: _373  and  _375
REMARK  160  A    between atoms: _375  and  _376
REMARK  161  A    between atoms: _379  and  _381
REMARK  162  A    between atoms: _381  and  _382
REMARK  163  A    between atoms: _384  and  _386
REMARK  164  A    between atoms: _386  and  _387
REMARK  165  A    between atoms: _386  and  _389
REMARK  166  A    between atoms: _389  and  _390
REMARK  167  A    between atoms: _396  and  _398
REMARK  168  A    between atoms: _398  and  _399
REMARK  169  A    between atoms: _401  and  _403
REMARK  170  A    between atoms: _403  and  _404
REMARK  171  A    between atoms: _403  and  _406
REMARK  172  A    between atoms: _406  and  _407
REMARK  173  A    between atoms: _410  and  _412
REMARK  174  A    between atoms: _412  and  _413
REMARK  175  A    between atoms: _412  and  _415
REMARK  176  A    between atoms: _415  and  _416
REMARK  177  A    between atoms: _419  and  _421
REMARK  178  A    between atoms: _421  and  _422
REMARK  179  A    between atoms: _421  and  _424
REMARK  180  A    between atoms: _424  and  _425
REMARK  181  A    between atoms: _428  and  _430
REMARK  182  A    between atoms: _430  and  _431
REMARK  183  A    between atoms: _430  and  _433
REMARK  184  A    between atoms: _436  and  _438
REMARK  185  A    between atoms: _438  and  _439
REMARK  186  A    between atoms: _438  and  _441
REMARK  187  A    between atoms: _441  and  _442
REMARK  188  A    between atoms: _445  and  _447
REMARK  189  A    between atoms: _447  and  _448
REMARK  190  A    between atoms: _447  and  _450
REMARK  191  A    between atoms: _450  and  _451
REMARK  192  A    between atoms: _453  and  _455
REMARK  193  A    between atoms: _455  and  _456
REMARK  194  A    between atoms: _459  and  _461
REMARK  195  A    between atoms: _461  and  _462
REMARK  196  A    between atoms: _461  and  _464
REMARK  197  A    between atoms: _464  and  _465
REMARK  198  A    between atoms: _465  and  _466
REMARK  199  A    between atoms: _466  and  _467
REMARK  200  A    between atoms: _467  and  _468
REMARK  201  A    between atoms: _472  and  _474
REMARK  202  A    between atoms: _474  and  _475
REMARK  203  A    between atoms: _477  and  _479
REMARK  204  A    between atoms: _479  and  _480
REMARK  205  A    between atoms: _483  and  _485
REMARK  206  A    between atoms: _485  and  _486
REMARK  207  A    between atoms: _485  and  _488
REMARK  208  A    between atoms: _488  and  _489
REMARK  209  A    between atoms: _489  and  _490
REMARK  210  A    between atoms: _493  and  _495
REMARK  211  A    between atoms: _495  and  _496
REMARK  212  A    between atoms: _495  and  _498
REMARK  213  A    between atoms: _498  and  _499
REMARK  214  A    between atoms: _499  and  _500
REMARK  215  A    between atoms: _500  and  _501
REMARK  216  A    between atoms: _510  and  _512
REMARK  217  A    between atoms: _512  and  _513
REMARK  218  A    between atoms: _512  and  _515
REMARK  219  A    between atoms: _518  and  _520
REMARK  220  A    between atoms: _520  and  _521
REMARK  221  A    between atoms: _520  and  _523
REMARK  222  A    between atoms: _523  and  _524
REMARK  223  A    between atoms: _527  and  _529
REMARK  224  A    between atoms: _529  and  _530
REMARK  225  A    between atoms: _529  and  _532
REMARK  226  A    between atoms: _532  and  _533
REMARK  227  A    between atoms: _536  and  _538
REMARK  228  A    between atoms: _538  and  _539
REMARK  229  A    between atoms: _538  and  _541
REMARK  230  A    between atoms: _541  and  _542
REMARK  231  A    between atoms: _545  and  _547
REMARK  232  A    between atoms: _547  and  _548
REMARK  233  A    between atoms: _547  and  _550
REMARK  234  A    between atoms: _550  and  _551
REMARK  235  A    between atoms: _551  and  _552
REMARK  236  A    between atoms: _552  and  _553
REMARK  237  A    between atoms: _553  and  _554
REMARK  238  A    between atoms: _558  and  _560
REMARK  239  A    between atoms: _560  and  _561
REMARK  240  A    between atoms: _560  and  _563
REMARK  241  A    between atoms: _563  and  _564
REMARK  242  A    between atoms: _564  and  _565
REMARK  243  A    between atoms: _568  and  _569
REMARK  244  A    between atoms: _574  and  _576
REMARK  245  A    between atoms: _576  and  _577
REMARK  246  A    between atoms: _576  and  _579
REMARK  247  A    between atoms: _579  and  _580
REMARK  248  A    between atoms: _583  and  _585
REMARK  249  A    between atoms: _585  and  _586
REMARK  250  A    between atoms: _585  and  _588
REMARK  251  A    between atoms: _588  and  _589
REMARK  252  A    between atoms: _589  and  _590
REMARK  253  A    between atoms: _595  and  _597
REMARK  254  A    between atoms: _597  and  _598
REMARK  255  A    between atoms: _597  and  _600
REMARK  256  A    between atoms: _600  and  _601
REMARK  257  A    between atoms: _601  and  _602
REMARK  258  A    between atoms: _604  and  _606
REMARK  259  A    between atoms: _606  and  _607
REMARK  260  A    between atoms: _606  and  _609
REMARK  261  A    between atoms: _609  and  _610
REMARK                            x       y       z     vdW  Elec       q    Type
REMARK                         _______ _______ _______ _____ _____    ______ ____
ROOT
ATOM      1  O   HOH     1      38.579  28.650 103.849  0.00  0.00    +0.000 OA
ENDROOT
TORSDOF 0
REMARK  Name = ../refined-set-2016/1xap/1xap_pocket.pdb
REMARK  261 active torsions:
REMARK  status: ('A' for Active; 'I' for Inactive)
REMARK    1  A    between atoms: _1  and  _3
REMARK    2  A    between atoms: _3  and  _4
REMARK    3  A    between atoms: _3  and  _6
REMARK    4  A    between atoms: _6  and  _7
REMARK    5  A    between atoms: _10  and  _12
REMARK    6  A    between atoms: _12  and  _13
REMARK    7  A    between atoms: _12  and  _15
REMARK    8  A    between atoms: _15  and  _16
REMARK    9  A    between atoms: _23  and  _24
REMARK   10  A    between atoms: _29  and  _31
REMARK   11  A    between atoms: _31  and  _32
REMARK   12  A    between atoms: _31  and  _34
REMARK   13  A    between atoms: _34  and  _35
REMARK   14  A    between atoms: _38  and  _40
REMARK   15  A    between atoms: _40  and  _41
REMARK   16  A    between atoms: _40  and  _43
REMARK   17  A    between atoms: _43  and  _44
REMARK   18  A    between atoms: _54  and  _56
REMARK   19  A    between atoms: _56  and  _57
REMARK   20  A    between atoms: _56  and  _59
REMARK   21  A    between atoms: _59  and  _60
REMARK   22  A    between atoms: _60  and  _61
REMARK   23  A    between atoms: _61  and  _62
REMARK   24  A    between atoms: _62  and  _63
REMARK   25  A    between atoms: _67  and  _69
REMARK   26  A    between atoms: _69  and  _70
REMARK   27  A    between atoms: _69  and  _72
REMARK   28  A    between atoms: _72  and  _73
REMARK   29  A    between atoms: _79  and  _81
REMARK   30  A    between atoms: _81  and  _82
REMARK   31  A    between atoms: _81  and  _84
REMARK   32  A    between atoms: _84  and  _85
REMARK   33  A    between atoms: _87  and  _89
REMARK   34  A    between atoms: _89  and  _90
REMARK   35  A    between atoms: _89  and  _92
REMARK   36  A    between atoms: _92  and  _93
REMARK   37  A    between atoms: _93  and  _94
REMARK   38  A    between atoms: _97  and  _99
REMARK   39  A    between atoms: _99  and  _100
REMARK   40  A    between atoms: _99  and  _102
REMARK   41  A    between atoms: _102  and  _103
REMARK   42  A    between atoms: _106  and  _108
REMARK   43  A    between atoms: _108  and  _109
REMARK   44  A    between atoms: _112  and  _114
REMARK   45  A    between atoms: _114  and  _115
REMARK   46  A    between atoms: _114  and  _117
REMARK   47  A    between atoms: _117  and  _118
REMARK   48  A    between atoms: _121  and  _123
REMARK   49  A    between atoms: _123  and  _124
REMARK   50  A    between atoms: _123  and  _126
REMARK   51  A    between atoms: _126  and  _127
REMARK   52  A    between atoms: _127  and  _128
REMARK   53  A    between atoms: _128  and  _129
REMARK   54  A    between atoms: _129  and  _130
REMARK   55  A    between atoms: _134  and  _136
REMARK   56  A    between atoms: _136  and  _137
REMARK   57  A    between atoms: _136  and  _139
REMARK   58  A    between atoms: _141  and  _143
REMARK   59  A    between atoms: _143  and  _144
REMARK   60  A    between atoms: _143  and  _146
REMARK   61  A    between atoms: _146  and  _147
REMARK   62  A    between atoms: _150  and  _152
REMARK   63  A    between atoms: _152  and  _153
REMARK   64  A    between atoms: _152  and  _155
REMARK   65  A    between atoms: _155  and  _156
REMARK   66  A    between atoms: _156  and  _157
REMARK   67  A    between atoms: _157  and  _158
REMARK   68  A    between atoms: _158  and  _159
REMARK   69  A    between atoms: _163  and  _165
REMARK   70  A    between atoms: _165  and  _166
REMARK   71  A    between atoms: _165  and  _168
REMARK   72  A    between atoms: _168  and  _169
REMARK   73  A    between atoms: _172  and  _174
REMARK   74  A    between atoms: _174  and  _175
REMARK   75  A    between atoms: _174  and  _177
REMARK   76  A    between atoms: _179  and  _181
REMARK   77  A    between atoms: _181  and  _182
REMARK   78  A    between atoms: _181  and  _184
REMARK   79  A    between atoms: _184  and  _185
REMARK   80  A    between atoms: _188  and  _190
REMARK   81  A    between atoms: _190  and  _191
REMARK   82  A    between atoms: _190  and  _193
REMARK   83  A    between atoms: _193  and  _194
REMARK   84  A    between atoms: _197  and  _199
REMARK   85  A    between atoms: _199  and  _200
REMARK   86  A    between atoms: _199  and  _202
REMARK   87  A    between atoms: _202  and  _203
REMARK   88  A    between atoms: _206  and  _208
REMARK   89  A    between atoms: _208  and  _209
REMARK   90  A    between atoms: _208  and  _211
REMARK   91  A    between atoms: _211  and  _212
REMARK   92  A    between atoms: _215  and  _217
REMARK   93  A    between atoms: _217  and  _218
REMARK   94  A    between atoms: _217  and  _220
REMARK   95  A    between atoms: _220  and  _221
REMARK   96  A    between atoms: _224  and  _226
REMARK   97  A    between atoms: _226  and  _227
REMARK   98  A    between atoms: _226  and  _229
REMARK   99  A    between atoms: _229  and  _230
REMARK  100  A    between atoms: _233  and  _235
REMARK  101  A    between atoms: _235  and  _236
REMARK  102  A    between atoms: _235  and  _238
REMARK  103  A    between atoms: _238  and  _239
REMARK  104  A    between atoms: _239  and  _240
REMARK  105  A    between atoms: _240  and  _241
REMARK  106  A    between atoms: _250  and  _252
REMARK  107  A    between atoms: _252  and  _253
REMARK  108  A    between atoms: _252  and  _255
REMARK  109  A    between atoms: _255  and  _256
REMARK  110  A    between atoms: _259  and  _261
REMARK  111  A    between atoms: _261  and  _262
REMARK  112  A    between atoms: _261  and  _264
REMARK  113  A    between atoms: _266  and  _268
REMARK  114  A    between atoms: _268  and  _269
REMARK  115  A    between atoms: _268  and  _271
REMARK  116  A    between atoms: _271  and  _272
REMARK  117  A    between atoms: _275  and  _277
REMARK  118  A    between atoms: _277  and  _278
REMARK  119  A    between atoms: _277  and  _280
REMARK  120  A    between atoms: _280  and  _281
REMARK  121  A    between atoms: _281  and  _282
REMARK  122  A    between atoms: _282  and  _283
REMARK  123  A    between atoms: _292  and  _294
REMARK  124  A    between atoms: _294  and  _295
REMARK  125  A    between atoms: _294  and  _297
REMARK  126  A    between atoms: _297  and  _298
REMARK  127  A    between atoms: _298  and  _299
REMARK  128  A    between atoms: _301  and  _303
REMARK  129  A    between atoms: _303  and  _304
REMARK  130  A    between atoms: _303  and  _306
REMARK  131  A    between atoms: _306  and  _307
REMARK  132  A    between atoms: _310  and  _312
REMARK  133  A    between atoms: _312  and  _313
REMARK  134  A    between atoms: _312  and  _315
REMARK  135  A    between atoms: _315  and  _316
REMARK  136  A    between atoms: _322  and  _324
REMARK  137  A    between atoms: _324  and  _325
REMARK  138  A    between atoms: _324  and  _327
REMARK  139  A    between atoms: _327  and  _328
REMARK  140  A    between atoms: _330  and  _332
REMARK  141  A    between atoms: _332  and  _333
REMARK  142  A    between atoms: _332  and  _335
REMARK  143  A    between atoms: _335  and  _336
REMARK  144  A    between atoms: _339  and  _341
REMARK  145  A    between atoms: _341  and  _342
REMARK  146  A    between atoms: _344  and  _346
REMARK  147  A    between atoms: _346  and  _347
REMARK  148  A    between atoms: _346  and  _349
REMARK  149  A    between atoms: _349  and  _350
REMARK  150  A    between atoms: _353  and  _355
REMARK  151  A    between atoms: _355  and  _356
REMARK  152  A    between atoms: _355  and  _358
REMARK  153  A    between atoms: _358  and  _359
REMARK  154  A    between atoms: _359  and  _360
REMARK  155  A    between atoms: _362  and  _364
REMARK  156  A    between atoms: _364  and  _365
REMARK  157  A    between atoms: _364  and  _367
REMARK  158  A    between atoms: _367  and  _368
REMARK  159  A    between atoms: _373  and  _375
REMARK  160  A    between atoms: _375  and  _376
REMARK  161  A    between atoms: _379  and  _381
REMARK  162  A    between atoms: _381  and  _382
REMARK  163  A    between atoms: _384  and  _386
REMARK  164  A    between atoms: _386  and  _387
REMARK  165  A    between atoms: _386  and  _389
REMARK  166  A    between atoms: _389  and  _390
REMARK  167  A    between atoms: _396  and  _398
REMARK  168  A    between atoms: _398  and  _399
REMARK  169  A    between atoms: _401  and  _403
REMARK  170  A    between atoms: _403  and  _404
REMARK  171  A    between atoms: _403  and  _406
REMARK  172  A    between atoms: _406  and  _407
REMARK  173  A    between atoms: _410  and  _412
REMARK  174  A    between atoms: _412  and  _413
REMARK  175  A    between atoms: _412  and  _415
REMARK  176  A    between atoms: _415  and  _416
REMARK  177  A    between atoms: _419  and  _421
REMARK  178  A    between atoms: _421  and  _422
REMARK  179  A    between atoms: _421  and  _424
REMARK  180  A    between atoms: _424  and  _425
REMARK  181  A    between atoms: _428  and  _430
REMARK  182  A    between atoms: _430  and  _431
REMARK  183  A    between atoms: _430  and  _433
REMARK  184  A    between atoms: _436  and  _438
REMARK  185  A    between atoms: _438  and  _439
REMARK  186  A    between atoms: _438  and  _441
REMARK  187  A    between atoms: _441  and  _442
REMARK  188  A    between atoms: _445  and  _447
REMARK  189  A    between atoms: _447  and  _448
REMARK  190  A    between atoms: _447  and  _450
REMARK  191  A    between atoms: _450  and  _451
REMARK  192  A    between atoms: _453  and  _455
REMARK  193  A    between atoms: _455  and  _456
REMARK  194  A    between atoms: _459  and  _461
REMARK  195  A    between atoms: _461  and  _462
REMARK  196  A    between atoms: _461  and  _464
REMARK  197  A    between atoms: _464  and  _465
REMARK  198  A    between atoms: _465  and  _466
REMARK  199  A    between atoms: _466  and  _467
REMARK  200  A    between atoms: _467  and  _468
REMARK  201  A    between atoms: _472  and  _474
REMARK  202  A    between atoms: _474  and  _475
REMARK  203  A    between atoms: _477  and  _479
REMARK  204  A    between atoms: _479  and  _480
REMARK  205  A    between atoms: _483  and  _485
REMARK  206  A    between atoms: _485  and  _486
REMARK  207  A    between atoms: _485  and  _488
REMARK  208  A    between atoms: _488  and  _489
REMARK  209  A    between atoms: _489  and  _490
REMARK  210  A    between atoms: _493  and  _495
REMARK  211  A    between atoms: _495  and  _496
REMARK  212  A    between atoms: _495  and  _498
REMARK  213  A    between atoms: _498  and  _499
REMARK  214  A    between atoms: _499  and  _500
REMARK  215  A    between atoms: _500  and  _501
REMARK  216  A    between atoms: _510  and  _512
REMARK  217  A    between atoms: _512  and  _513
REMARK  218  A    between atoms: _512  and  _515
REMARK  219  A    between atoms: _518  and  _520
REMARK  220  A    between atoms: _520  and  _521
REMARK  221  A    between atoms: _520  and  _523
REMARK  222  A    between atoms: _523  and  _524
REMARK  223  A    between atoms: _527  and  _529
REMARK  224  A    between atoms: _529  and  _530
REMARK  225  A    between atoms: _529  and  _532
REMARK  226  A    between atoms: _532  and  _533
REMARK  227  A    between atoms: _536  and  _538
REMARK  228  A    between atoms: _538  and  _539
REMARK  229  A    between atoms: _538  and  _541
REMARK  230  A    between atoms: _541  and  _542
REMARK  231  A    between atoms: _545  and  _547
REMARK  232  A    between atoms: _547  and  _548
REMARK  233  A    between atoms: _547  and  _550
REMARK  234  A    between atoms: _550  and  _551
REMARK  235  A    between atoms: _551  and  _552
REMARK  236  A    between atoms: _552  and  _553
REMARK  237  A    between atoms: _553  and  _554
REMARK  238  A    between atoms: _558  and  _560
REMARK  239  A    between atoms: _560  and  _561
REMARK  240  A    between atoms: _560  and  _563
REMARK  241  A    between atoms: _563  and  _564
REMARK  242  A    between atoms: _564  and  _565
REMARK  243  A    between atoms: _568  and  _569
REMARK  244  A    between atoms: _574  and  _576
REMARK  245  A    between atoms: _576  and  _577
REMARK  246  A    between atoms: _576  and  _579
REMARK  247  A    between atoms: _579  and  _580
REMARK  248  A    between atoms: _583  and  _585
REMARK  249  A    between atoms: _585  and  _586
REMARK  250  A    between atoms: _585  and  _588
REMARK  251  A    between atoms: _588  and  _589
REMARK  252  A    between atoms: _589  and  _590
REMARK  253  A    between atoms: _595  and  _597
REMARK  254  A    between atoms: _597  and  _598
REMARK  255  A    between atoms: _597  and  _600
REMARK  256  A    between atoms: _600  and  _601
REMARK  257  A    between atoms: _601  and  _602
REMARK  258  A    between atoms: _604  and  _606
REMARK  259  A    between atoms: _606  and  _607
REMARK  260  A    between atoms: _606  and  _609
REMARK  261  A    between atoms: _609  and  _610
REMARK                            x       y       z     vdW  Elec       q    Type
REMARK                         _______ _______ _______ _____ _____    ______ ____
ROOT
ATOM      1  O   HOH     1      50.725  19.082 105.856  0.00  0.00    +0.000 OA
ENDROOT
TORSDOF 0
REMARK  Name = ../refined-set-2016/1xap/1xap_pocket.pdb
REMARK  261 active torsions:
REMARK  status: ('A' for Active; 'I' for Inactive)
REMARK    1  A    between atoms: _1  and  _3
REMARK    2  A    between atoms: _3  and  _4
REMARK    3  A    between atoms: _3  and  _6
REMARK    4  A    between atoms: _6  and  _7
REMARK    5  A    between atoms: _10  and  _12
REMARK    6  A    between atoms: _12  and  _13
REMARK    7  A    between atoms: _12  and  _15
REMARK    8  A    between atoms: _15  and  _16
REMARK    9  A    between atoms: _23  and  _24
REMARK   10  A    between atoms: _29  and  _31
REMARK   11  A    between atoms: _31  and  _32
REMARK   12  A    between atoms: _31  and  _34
REMARK   13  A    between atoms: _34  and  _35
REMARK   14  A    between atoms: _38  and  _40
REMARK   15  A    between atoms: _40  and  _41
REMARK   16  A    between atoms: _40  and  _43
REMARK   17  A    between atoms: _43  and  _44
REMARK   18  A    between atoms: _54  and  _56
REMARK   19  A    between atoms: _56  and  _57
REMARK   20  A    between atoms: _56  and  _59
REMARK   21  A    between atoms: _59  and  _60
REMARK   22  A    between atoms: _60  and  _61
REMARK   23  A    between atoms: _61  and  _62
REMARK   24  A    between atoms: _62  and  _63
REMARK   25  A    between atoms: _67  and  _69
REMARK   26  A    between atoms: _69  and  _70
REMARK   27  A    between atoms: _69  and  _72
REMARK   28  A    between atoms: _72  and  _73
REMARK   29  A    between atoms: _79  and  _81
REMARK   30  A    between atoms: _81  and  _82
REMARK   31  A    between atoms: _81  and  _84
REMARK   32  A    between atoms: _84  and  _85
REMARK   33  A    between atoms: _87  and  _89
REMARK   34  A    between atoms: _89  and  _90
REMARK   35  A    between atoms: _89  and  _92
REMARK   36  A    between atoms: _92  and  _93
REMARK   37  A    between atoms: _93  and  _94
REMARK   38  A    between atoms: _97  and  _99
REMARK   39  A    between atoms: _99  and  _100
REMARK   40  A    between atoms: _99  and  _102
REMARK   41  A    between atoms: _102  and  _103
REMARK   42  A    between atoms: _106  and  _108
REMARK   43  A    between atoms: _108  and  _109
REMARK   44  A    between atoms: _112  and  _114
REMARK   45  A    between atoms: _114  and  _115
REMARK   46  A    between atoms: _114  and  _117
REMARK   47  A    between atoms: _117  and  _118
REMARK   48  A    between atoms: _121  and  _123
REMARK   49  A    between atoms: _123  and  _124
REMARK   50  A    between atoms: _123  and  _126
REMARK   51  A    between atoms: _126  and  _127
REMARK   52  A    between atoms: _127  and  _128
REMARK   53  A    between atoms: _128  and  _129
REMARK   54  A    between atoms: _129  and  _130
REMARK   55  A    between atoms: _134  and  _136
REMARK   56  A    between atoms: _136  and  _137
REMARK   57  A    between atoms: _136  and  _139
REMARK   58  A    between atoms: _141  and  _143
REMARK   59  A    between atoms: _143  and  _144
REMARK   60  A    between atoms: _143  and  _146
REMARK   61  A    between atoms: _146  and  _147
REMARK   62  A    between atoms: _150  and  _152
REMARK   63  A    between atoms: _152  and  _153
REMARK   64  A    between atoms: _152  and  _155
REMARK   65  A    between atoms: _155  and  _156
REMARK   66  A    between atoms: _156  and  _157
REMARK   67  A    between atoms: _157  and  _158
REMARK   68  A    between atoms: _158  and  _159
REMARK   69  A    between atoms: _163  and  _165
REMARK   70  A    between atoms: _165  and  _166
REMARK   71  A    between atoms: _165  and  _168
REMARK   72  A    between atoms: _168  and  _169
REMARK   73  A    between atoms: _172  and  _174
REMARK   74  A    between atoms: _174  and  _175
REMARK   75  A    between atoms: _174  and  _177
REMARK   76  A    between atoms: _179  and  _181
REMARK   77  A    between atoms: _181  and  _182
REMARK   78  A    between atoms: _181  and  _184
REMARK   79  A    between atoms: _184  and  _185
REMARK   80  A    between atoms: _188  and  _190
REMARK   81  A    between atoms: _190  and  _191
REMARK   82  A    between atoms: _190  and  _193
REMARK   83  A    between atoms: _193  and  _194
REMARK   84  A    between atoms: _197  and  _199
REMARK   85  A    between atoms: _199  and  _200
REMARK   86  A    between atoms: _199  and  _202
REMARK   87  A    between atoms: _202  and  _203
REMARK   88  A    between atoms: _206  and  _208
REMARK   89  A    between atoms: _208  and  _209
REMARK   90  A    between atoms: _208  and  _211
REMARK   91  A    between atoms: _211  and  _212
REMARK   92  A    between atoms: _215  and  _217
REMARK   93  A    between atoms: _217  and  _218
REMARK   94  A    between atoms: _217  and  _220
REMARK   95  A    between atoms: _220  and  _221
REMARK   96  A    between atoms: _224  and  _226
REMARK   97  A    between atoms: _226  and  _227
REMARK   98  A    between atoms: _226  and  _229
REMARK   99  A    between atoms: _229  and  _230
REMARK  100  A    between atoms: _233  and  _235
REMARK  101  A    between atoms: _235  and  _236
REMARK  102  A    between atoms: _235  and  _238
REMARK  103  A    between atoms: _238  and  _239
REMARK  104  A    between atoms: _239  and  _240
REMARK  105  A    between atoms: _240  and  _241
REMARK  106  A    between atoms: _250  and  _252
REMARK  107  A    between atoms: _252  and  _253
REMARK  108  A    between atoms: _252  and  _255
REMARK  109  A    between atoms: _255  and  _256
REMARK  110  A    between atoms: _259  and  _261
REMARK  111  A    between atoms: _261  and  _262
REMARK  112  A    between atoms: _261  and  _264
REMARK  113  A    between atoms: _266  and  _268
REMARK  114  A    between atoms: _268  and  _269
REMARK  115  A    between atoms: _268  and  _271
REMARK  116  A    between atoms: _271  and  _272
REMARK  117  A    between atoms: _275  and  _277
REMARK  118  A    between atoms: _277  and  _278
REMARK  119  A    between atoms: _277  and  _280
REMARK  120  A    between atoms: _280  and  _281
REMARK  121  A    between atoms: _281  and  _282
REMARK  122  A    between atoms: _282  and  _283
REMARK  123  A    between atoms: _292  and  _294
REMARK  124  A    between atoms: _294  and  _295
REMARK  125  A    between atoms: _294  and  _297
REMARK  126  A    between atoms: _297  and  _298
REMARK  127  A    between atoms: _298  and  _299
REMARK  128  A    between atoms: _301  and  _303
REMARK  129  A    between atoms: _303  and  _304
REMARK  130  A    between atoms: _303  and  _306
REMARK  131  A    between atoms: _306  and  _307
REMARK  132  A    between atoms: _310  and  _312
REMARK  133  A    between atoms: _312  and  _313
REMARK  134  A    between atoms: _312  and  _315
REMARK  135  A    between atoms: _315  and  _316
REMARK  136  A    between atoms: _322  and  _324
REMARK  137  A    between atoms: _324  and  _325
REMARK  138  A    between atoms: _324  and  _327
REMARK  139  A    between atoms: _327  and  _328
REMARK  140  A    between atoms: _330  and  _332
REMARK  141  A    between atoms: _332  and  _333
REMARK  142  A    between atoms: _332  and  _335
REMARK  143  A    between atoms: _335  and  _336
REMARK  144  A    between atoms: _339  and  _341
REMARK  145  A    between atoms: _341  and  _342
REMARK  146  A    between atoms: _344  and  _346
REMARK  147  A    between atoms: _346  and  _347
REMARK  148  A    between atoms: _346  and  _349
REMARK  149  A    between atoms: _349  and  _350
REMARK  150  A    between atoms: _353  and  _355
REMARK  151  A    between atoms: _355  and  _356
REMARK  152  A    between atoms: _355  and  _358
REMARK  153  A    between atoms: _358  and  _359
REMARK  154  A    between atoms: _359  and  _360
REMARK  155  A    between atoms: _362  and  _364
REMARK  156  A    between atoms: _364  and  _365
REMARK  157  A    between atoms: _364  and  _367
REMARK  158  A    between atoms: _367  and  _368
REMARK  159  A    between atoms: _373  and  _375
REMARK  160  A    between atoms: _375  and  _376
REMARK  161  A    between atoms: _379  and  _381
REMARK  162  A    between atoms: _381  and  _382
REMARK  163  A    between atoms: _384  and  _386
REMARK  164  A    between atoms: _386  and  _387
REMARK  165  A    between atoms: _386  and  _389
REMARK  166  A    between atoms: _389  and  _390
REMARK  167  A    between atoms: _396  and  _398
REMARK  168  A    between atoms: _398  and  _399
REMARK  169  A    between atoms: _401  and  _403
REMARK  170  A    between atoms: _403  and  _404
REMARK  171  A    between atoms: _403  and  _406
REMARK  172  A    between atoms: _406  and  _407
REMARK  173  A    between atoms: _410  and  _412
REMARK  174  A    between atoms: _412  and  _413
REMARK  175  A    between atoms: _412  and  _415
REMARK  176  A    between atoms: _415  and  _416
REMARK  177  A    between atoms: _419  and  _421
REMARK  178  A    between atoms: _421  and  _422
REMARK  179  A    between atoms: _421  and  _424
REMARK  180  A    between atoms: _424  and  _425
REMARK  181  A    between atoms: _428  and  _430
REMARK  182  A    between atoms: _430  and  _431
REMARK  183  A    between atoms: _430  and  _433
REMARK  184  A    between atoms: _436  and  _438
REMARK  185  A    between atoms: _438  and  _439
REMARK  186  A    between atoms: _438  and  _441
REMARK  187  A    between atoms: _441  and  _442
REMARK  188  A    between atoms: _445  and  _447
REMARK  189  A    between atoms: _447  and  _448
REMARK  190  A    between atoms: _447  and  _450
REMARK  191  A    between atoms: _450  and  _451
REMARK  192  A    between atoms: _453  and  _455
REMARK  193  A    between atoms: _455  and  _456
REMARK  194  A    between atoms: _459  and  _461
REMARK  195  A    between atoms: _461  and  _462
REMARK  196  A    between atoms: _461  and  _464
REMARK  197  A    between atoms: _464  and  _465
REMARK  198  A    between atoms: _465  and  _466
REMARK  199  A    between atoms: _466  and  _467
REMARK  200  A    between atoms: _467  and  _468
REMARK  201  A    between atoms: _472  and  _474
REMARK  202  A    between atoms: _474  and  _475
REMARK  203  A    between atoms: _477  and  _479
REMARK  204  A    between atoms: _479  and  _480
REMARK  205  A    between atoms: _483  and  _485
REMARK  206  A    between atoms: _485  and  _486
REMARK  207  A    between atoms: _485  and  _488
REMARK  208  A    between atoms: _488  and  _489
REMARK  209  A    between atoms: _489  and  _490
REMARK  210  A    between atoms: _493  and  _495
REMARK  211  A    between atoms: _495  and  _496
REMARK  212  A    between atoms: _495  and  _498
REMARK  213  A    between atoms: _498  and  _499
REMARK  214  A    between atoms: _499  and  _500
REMARK  215  A    between atoms: _500  and  _501
REMARK  216  A    between atoms: _510  and  _512
REMARK  217  A    between atoms: _512  and  _513
REMARK  218  A    between atoms: _512  and  _515
REMARK  219  A    between atoms: _518  and  _520
REMARK  220  A    between atoms: _520  and  _521
REMARK  221  A    between atoms: _520  and  _523
REMARK  222  A    between atoms: _523  and  _524
REMARK  223  A    between atoms: _527  and  _529
REMARK  224  A    between atoms: _529  and  _530
REMARK  225  A    between atoms: _529  and  _532
REMARK  226  A    between atoms: _532  and  _533
REMARK  227  A    between atoms: _536  and  _538
REMARK  228  A    between atoms: _538  and  _539
REMARK  229  A    between atoms: _538  and  _541
REMARK  230  A    between atoms: _541  and  _542
REMARK  231  A    between atoms: _545  and  _547
REMARK  232  A    between atoms: _547  and  _548
REMARK  233  A    between atoms: _547  and  _550
REMARK  234  A    between atoms: _550  and  _551
REMARK  235  A    between atoms: _551  and  _552
REMARK  236  A    between atoms: _552  and  _553
REMARK  237  A    between atoms: _553  and  _554
REMARK  238  A    between atoms: _558  and  _560
REMARK  239  A    between atoms: _560  and  _561
REMARK  240  A    between atoms: _560  and  _563
REMARK  241  A    between atoms: _563  and  _564
REMARK  242  A    between atoms: _564  and  _565
REMARK  243  A    between atoms: _568  and  _569
REMARK  244  A    between atoms: _574  and  _576
REMARK  245  A    between atoms: _576  and  _577
REMARK  246  A    between atoms: _576  and  _579
REMARK  247  A    between atoms: _579  and  _580
REMARK  248  A    between atoms: _583  and  _585
REMARK  249  A    between atoms: _585  and  _586
REMARK  250  A    between atoms: _585  and  _588
REMARK  251  A    between atoms: _588  and  _589
REMARK  252  A    between atoms: _589  and  _590
REMARK  253  A    between atoms: _595  and  _597
REMARK  254  A    between atoms: _597  and  _598
REMARK  255  A    between atoms: _597  and  _600
REMARK  256  A    between atoms: _600  and  _601
REMARK  257  A    between atoms: _601  and  _602
REMARK  258  A    between atoms: _604  and  _606
REMARK  259  A    between atoms: _606  and  _607
REMARK  260  A    between atoms: _606  and  _609
REMARK  261  A    between atoms: _609  and  _610
REMARK                            x       y       z     vdW  Elec       q    Type
REMARK                         _______ _______ _______ _____ _____    ______ ____
ROOT
ATOM      1  O   HOH     1      56.186  18.555  97.195  0.00  0.00    +0.000 OA
ENDROOT
TORSDOF 0
REMARK  Name = ../refined-set-2016/1xap/1xap_pocket.pdb
REMARK  261 active torsions:
REMARK  status: ('A' for Active; 'I' for Inactive)
REMARK    1  A    between atoms: _1  and  _3
REMARK    2  A    between atoms: _3  and  _4
REMARK    3  A    between atoms: _3  and  _6
REMARK    4  A    between atoms: _6  and  _7
REMARK    5  A    between atoms: _10  and  _12
REMARK    6  A    between atoms: _12  and  _13
REMARK    7  A    between atoms: _12  and  _15
REMARK    8  A    between atoms: _15  and  _16
REMARK    9  A    between atoms: _23  and  _24
REMARK   10  A    between atoms: _29  and  _31
REMARK   11  A    between atoms: _31  and  _32
REMARK   12  A    between atoms: _31  and  _34
REMARK   13  A    between atoms: _34  and  _35
REMARK   14  A    between atoms: _38  and  _40
REMARK   15  A    between atoms: _40  and  _41
REMARK   16  A    between atoms: _40  and  _43
REMARK   17  A    between atoms: _43  and  _44
REMARK   18  A    between atoms: _54  and  _56
REMARK   19  A    between atoms: _56  and  _57
REMARK   20  A    between atoms: _56  and  _59
REMARK   21  A    between atoms: _59  and  _60
REMARK   22  A    between atoms: _60  and  _61
REMARK   23  A    between atoms: _61  and  _62
REMARK   24  A    between atoms: _62  and  _63
REMARK   25  A    between atoms: _67  and  _69
REMARK   26  A    between atoms: _69  and  _70
REMARK   27  A    between atoms: _69  and  _72
REMARK   28  A    between atoms: _72  and  _73
REMARK   29  A    between atoms: _79  and  _81
REMARK   30  A    between atoms: _81  and  _82
REMARK   31  A    between atoms: _81  and  _84
REMARK   32  A    between atoms: _84  and  _85
REMARK   33  A    between atoms: _87  and  _89
REMARK   34  A    between atoms: _89  and  _90
REMARK   35  A    between atoms: _89  and  _92
REMARK   36  A    between atoms: _92  and  _93
REMARK   37  A    between atoms: _93  and  _94
REMARK   38  A    between atoms: _97  and  _99
REMARK   39  A    between atoms: _99  and  _100
REMARK   40  A    between atoms: _99  and  _102
REMARK   41  A    between atoms: _102  and  _103
REMARK   42  A    between atoms: _106  and  _108
REMARK   43  A    between atoms: _108  and  _109
REMARK   44  A    between atoms: _112  and  _114
REMARK   45  A    between atoms: _114  and  _115
REMARK   46  A    between atoms: _114  and  _117
REMARK   47  A    between atoms: _117  and  _118
REMARK   48  A    between atoms: _121  and  _123
REMARK   49  A    between atoms: _123  and  _124
REMARK   50  A    between atoms: _123  and  _126
REMARK   51  A    between atoms: _126  and  _127
REMARK   52  A    between atoms: _127  and  _128
REMARK   53  A    between atoms: _128  and  _129
REMARK   54  A    between atoms: _129  and  _130
REMARK   55  A    between atoms: _134  and  _136
REMARK   56  A    between atoms: _136  and  _137
REMARK   57  A    between atoms: _136  and  _139
REMARK   58  A    between atoms: _141  and  _143
REMARK   59  A    between atoms: _143  and  _144
REMARK   60  A    between atoms: _143  and  _146
REMARK   61  A    between atoms: _146  and  _147
REMARK   62  A    between atoms: _150  and  _152
REMARK   63  A    between atoms: _152  and  _153
REMARK   64  A    between atoms: _152  and  _155
REMARK   65  A    between atoms: _155  and  _156
REMARK   66  A    between atoms: _156  and  _157
REMARK   67  A    between atoms: _157  and  _158
REMARK   68  A    between atoms: _158  and  _159
REMARK   69  A    between atoms: _163  and  _165
REMARK   70  A    between atoms: _165  and  _166
REMARK   71  A    between atoms: _165  and  _168
REMARK   72  A    between atoms: _168  and  _169
REMARK   73  A    between atoms: _172  and  _174
REMARK   74  A    between atoms: _174  and  _175
REMARK   75  A    between atoms: _174  and  _177
REMARK   76  A    between atoms: _179  and  _181
REMARK   77  A    between atoms: _181  and  _182
REMARK   78  A    between atoms: _181  and  _184
REMARK   79  A    between atoms: _184  and  _185
REMARK   80  A    between atoms: _188  and  _190
REMARK   81  A    between atoms: _190  and  _191
REMARK   82  A    between atoms: _190  and  _193
REMARK   83  A    between atoms: _193  and  _194
REMARK   84  A    between atoms: _197  and  _199
REMARK   85  A    between atoms: _199  and  _200
REMARK   86  A    between atoms: _199  and  _202
REMARK   87  A    between atoms: _202  and  _203
REMARK   88  A    between atoms: _206  and  _208
REMARK   89  A    between atoms: _208  and  _209
REMARK   90  A    between atoms: _208  and  _211
REMARK   91  A    between atoms: _211  and  _212
REMARK   92  A    between atoms: _215  and  _217
REMARK   93  A    between atoms: _217  and  _218
REMARK   94  A    between atoms: _217  and  _220
REMARK   95  A    between atoms: _220  and  _221
REMARK   96  A    between atoms: _224  and  _226
REMARK   97  A    between atoms: _226  and  _227
REMARK   98  A    between atoms: _226  and  _229
REMARK   99  A    between atoms: _229  and  _230
REMARK  100  A    between atoms: _233  and  _235
REMARK  101  A    between atoms: _235  and  _236
REMARK  102  A    between atoms: _235  and  _238
REMARK  103  A    between atoms: _238  and  _239
REMARK  104  A    between atoms: _239  and  _240
REMARK  105  A    between atoms: _240  and  _241
REMARK  106  A    between atoms: _250  and  _252
REMARK  107  A    between atoms: _252  and  _253
REMARK  108  A    between atoms: _252  and  _255
REMARK  109  A    between atoms: _255  and  _256
REMARK  110  A    between atoms: _259  and  _261
REMARK  111  A    between atoms: _261  and  _262
REMARK  112  A    between atoms: _261  and  _264
REMARK  113  A    between atoms: _266  and  _268
REMARK  114  A    between atoms: _268  and  _269
REMARK  115  A    between atoms: _268  and  _271
REMARK  116  A    between atoms: _271  and  _272
REMARK  117  A    between atoms: _275  and  _277
REMARK  118  A    between atoms: _277  and  _278
REMARK  119  A    between atoms: _277  and  _280
REMARK  120  A    between atoms: _280  and  _281
REMARK  121  A    between atoms: _281  and  _282
REMARK  122  A    between atoms: _282  and  _283
REMARK  123  A    between atoms: _292  and  _294
REMARK  124  A    between atoms: _294  and  _295
REMARK  125  A    between atoms: _294  and  _297
REMARK  126  A    between atoms: _297  and  _298
REMARK  127  A    between atoms: _298  and  _299
REMARK  128  A    between atoms: _301  and  _303
REMARK  129  A    between atoms: _303  and  _304
REMARK  130  A    between atoms: _303  and  _306
REMARK  131  A    between atoms: _306  and  _307
REMARK  132  A    between atoms: _310  and  _312
REMARK  133  A    between atoms: _312  and  _313
REMARK  134  A    between atoms: _312  and  _315
REMARK  135  A    between atoms: _315  and  _316
REMARK  136  A    between atoms: _322  and  _324
REMARK  137  A    between atoms: _324  and  _325
REMARK  138  A    between atoms: _324  and  _327
REMARK  139  A    between atoms: _327  and  _328
REMARK  140  A    between atoms: _330  and  _332
REMARK  141  A    between atoms: _332  and  _333
REMARK  142  A    between atoms: _332  and  _335
REMARK  143  A    between atoms: _335  and  _336
REMARK  144  A    between atoms: _339  and  _341
REMARK  145  A    between atoms: _341  and  _342
REMARK  146  A    between atoms: _344  and  _346
REMARK  147  A    between atoms: _346  and  _347
REMARK  148  A    between atoms: _346  and  _349
REMARK  149  A    between atoms: _349  and  _350
REMARK  150  A    between atoms: _353  and  _355
REMARK  151  A    between atoms: _355  and  _356
REMARK  152  A    between atoms: _355  and  _358
REMARK  153  A    between atoms: _358  and  _359
REMARK  154  A    between atoms: _359  and  _360
REMARK  155  A    between atoms: _362  and  _364
REMARK  156  A    between atoms: _364  and  _365
REMARK  157  A    between atoms: _364  and  _367
REMARK  158  A    between atoms: _367  and  _368
REMARK  159  A    between atoms: _373  and  _375
REMARK  160  A    between atoms: _375  and  _376
REMARK  161  A    between atoms: _379  and  _381
REMARK  162  A    between atoms: _381  and  _382
REMARK  163  A    between atoms: _384  and  _386
REMARK  164  A    between atoms: _386  and  _387
REMARK  165  A    between atoms: _386  and  _389
REMARK  166  A    between atoms: _389  and  _390
REMARK  167  A    between atoms: _396  and  _398
REMARK  168  A    between atoms: _398  and  _399
REMARK  169  A    between atoms: _401  and  _403
REMARK  170  A    between atoms: _403  and  _404
REMARK  171  A    between atoms: _403  and  _406
REMARK  172  A    between atoms: _406  and  _407
REMARK  173  A    between atoms: _410  and  _412
REMARK  174  A    between atoms: _412  and  _413
REMARK  175  A    between atoms: _412  and  _415
REMARK  176  A    between atoms: _415  and  _416
REMARK  177  A    between atoms: _419  and  _421
REMARK  178  A    between atoms: _421  and  _422
REMARK  179  A    between atoms: _421  and  _424
REMARK  180  A    between atoms: _424  and  _425
REMARK  181  A    between atoms: _428  and  _430
REMARK  182  A    between atoms: _430  and  _431
REMARK  183  A    between atoms: _430  and  _433
REMARK  184  A    between atoms: _436  and  _438
REMARK  185  A    between atoms: _438  and  _439
REMARK  186  A    between atoms: _438  and  _441
REMARK  187  A    between atoms: _441  and  _442
REMARK  188  A    between atoms: _445  and  _447
REMARK  189  A    between atoms: _447  and  _448
REMARK  190  A    between atoms: _447  and  _450
REMARK  191  A    between atoms: _450  and  _451
REMARK  192  A    between atoms: _453  and  _455
REMARK  193  A    between atoms: _455  and  _456
REMARK  194  A    between atoms: _459  and  _461
REMARK  195  A    between atoms: _461  and  _462
REMARK  196  A    between atoms: _461  and  _464
REMARK  197  A    between atoms: _464  and  _465
REMARK  198  A    between atoms: _465  and  _466
REMARK  199  A    between atoms: _466  and  _467
REMARK  200  A    between atoms: _467  and  _468
REMARK  201  A    between atoms: _472  and  _474
REMARK  202  A    between atoms: _474  and  _475
REMARK  203  A    between atoms: _477  and  _479
REMARK  204  A    between atoms: _479  and  _480
REMARK  205  A    between atoms: _483  and  _485
REMARK  206  A    between atoms: _485  and  _486
REMARK  207  A    between atoms: _485  and  _488
REMARK  208  A    between atoms: _488  and  _489
REMARK  209  A    between atoms: _489  and  _490
REMARK  210  A    between atoms: _493  and  _495
REMARK  211  A    between atoms: _495  and  _496
REMARK  212  A    between atoms: _495  and  _498
REMARK  213  A    between atoms: _498  and  _499
REMARK  214  A    between atoms: _499  and  _500
REMARK  215  A    between atoms: _500  and  _501
REMARK  216  A    between atoms: _510  and  _512
REMARK  217  A    between atoms: _512  and  _513
REMARK  218  A    between atoms: _512  and  _515
REMARK  219  A    between atoms: _518  and  _520
REMARK  220  A    between atoms: _520  and  _521
REMARK  221  A    between atoms: _520  and  _523
REMARK  222  A    between atoms: _523  and  _524
REMARK  223  A    between atoms: _527  and  _529
REMARK  224  A    between atoms: _529  and  _530
REMARK  225  A    between atoms: _529  and  _532
REMARK  226  A    between atoms: _532  and  _533
REMARK  227  A    between atoms: _536  and  _538
REMARK  228  A    between atoms: _538  and  _539
REMARK  229  A    between atoms: _538  and  _541
REMARK  230  A    between atoms: _541  and  _542
REMARK  231  A    between atoms: _545  and  _547
REMARK  232  A    between atoms: _547  and  _548
REMARK  233  A    between atoms: _547  and  _550
REMARK  234  A    between atoms: _550  and  _551
REMARK  235  A    between atoms: _551  and  _552
REMARK  236  A    between atoms: _552  and  _553
REMARK  237  A    between atoms: _553  and  _554
REMARK  238  A    between atoms: _558  and  _560
REMARK  239  A    between atoms: _560  and  _561
REMARK  240  A    between atoms: _560  and  _563
REMARK  241  A    between atoms: _563  and  _564
REMARK  242  A    between atoms: _564  and  _565
REMARK  243  A    between atoms: _568  and  _569
REMARK  244  A    between atoms: _574  and  _576
REMARK  245  A    between atoms: _576  and  _577
REMARK  246  A    between atoms: _576  and  _579
REMARK  247  A    between atoms: _579  and  _580
REMARK  248  A    between atoms: _583  and  _585
REMARK  249  A    between atoms: _585  and  _586
REMARK  250  A    between atoms: _585  and  _588
REMARK  251  A    between atoms: _588  and  _589
REMARK  252  A    between atoms: _589  and  _590
REMARK  253  A    between atoms: _595  and  _597
REMARK  254  A    between atoms: _597  and  _598
REMARK  255  A    between atoms: _597  and  _600
REMARK  256  A    between atoms: _600  and  _601
REMARK  257  A    between atoms: _601  and  _602
REMARK  258  A    between atoms: _604  and  _606
REMARK  259  A    between atoms: _606  and  _607
REMARK  260  A    between atoms: _606  and  _609
REMARK  261  A    between atoms: _609  and  _610
REMARK                            x       y       z     vdW  Elec       q    Type
REMARK                         _______ _______ _______ _____ _____    ______ ____
ROOT
ATOM      1  O   HOH     1      55.740  18.627  99.738  0.00  0.00    +0.000 OA
ENDROOT
TORSDOF 0
REMARK  Name = ../refined-set-2016/1xap/1xap_pocket.pdb
REMARK  261 active torsions:
REMARK  status: ('A' for Active; 'I' for Inactive)
REMARK    1  A    between atoms: _1  and  _3
REMARK    2  A    between atoms: _3  and  _4
REMARK    3  A    between atoms: _3  and  _6
REMARK    4  A    between atoms: _6  and  _7
REMARK    5  A    between atoms: _10  and  _12
REMARK    6  A    between atoms: _12  and  _13
REMARK    7  A    between atoms: _12  and  _15
REMARK    8  A    between atoms: _15  and  _16
REMARK    9  A    between atoms: _23  and  _24
REMARK   10  A    between atoms: _29  and  _31
REMARK   11  A    between atoms: _31  and  _32
REMARK   12  A    between atoms: _31  and  _34
REMARK   13  A    between atoms: _34  and  _35
REMARK   14  A    between atoms: _38  and  _40
REMARK   15  A    between atoms: _40  and  _41
REMARK   16  A    between atoms: _40  and  _43
REMARK   17  A    between atoms: _43  and  _44
REMARK   18  A    between atoms: _54  and  _56
REMARK   19  A    between atoms: _56  and  _57
REMARK   20  A    between atoms: _56  and  _59
REMARK   21  A    between atoms: _59  and  _60
REMARK   22  A    between atoms: _60  and  _61
REMARK   23  A    between atoms: _61  and  _62
REMARK   24  A    between atoms: _62  and  _63
REMARK   25  A    between atoms: _67  and  _69
REMARK   26  A    between atoms: _69  and  _70
REMARK   27  A    between atoms: _69  and  _72
REMARK   28  A    between atoms: _72  and  _73
REMARK   29  A    between atoms: _79  and  _81
REMARK   30  A    between atoms: _81  and  _82
REMARK   31  A    between atoms: _81  and  _84
REMARK   32  A    between atoms: _84  and  _85
REMARK   33  A    between atoms: _87  and  _89
REMARK   34  A    between atoms: _89  and  _90
REMARK   35  A    between atoms: _89  and  _92
REMARK   36  A    between atoms: _92  and  _93
REMARK   37  A    between atoms: _93  and  _94
REMARK   38  A    between atoms: _97  and  _99
REMARK   39  A    between atoms: _99  and  _100
REMARK   40  A    between atoms: _99  and  _102
REMARK   41  A    between atoms: _102  and  _103
REMARK   42  A    between atoms: _106  and  _108
REMARK   43  A    between atoms: _108  and  _109
REMARK   44  A    between atoms: _112  and  _114
REMARK   45  A    between atoms: _114  and  _115
REMARK   46  A    between atoms: _114  and  _117
REMARK   47  A    between atoms: _117  and  _118
REMARK   48  A    between atoms: _121  and  _123
REMARK   49  A    between atoms: _123  and  _124
REMARK   50  A    between atoms: _123  and  _126
REMARK   51  A    between atoms: _126  and  _127
REMARK   52  A    between atoms: _127  and  _128
REMARK   53  A    between atoms: _128  and  _129
REMARK   54  A    between atoms: _129  and  _130
REMARK   55  A    between atoms: _134  and  _136
REMARK   56  A    between atoms: _136  and  _137
REMARK   57  A    between atoms: _136  and  _139
REMARK   58  A    between atoms: _141  and  _143
REMARK   59  A    between atoms: _143  and  _144
REMARK   60  A    between atoms: _143  and  _146
REMARK   61  A    between atoms: _146  and  _147
REMARK   62  A    between atoms: _150  and  _152
REMARK   63  A    between atoms: _152  and  _153
REMARK   64  A    between atoms: _152  and  _155
REMARK   65  A    between atoms: _155  and  _156
REMARK   66  A    between atoms: _156  and  _157
REMARK   67  A    between atoms: _157  and  _158
REMARK   68  A    between atoms: _158  and  _159
REMARK   69  A    between atoms: _163  and  _165
REMARK   70  A    between atoms: _165  and  _166
REMARK   71  A    between atoms: _165  and  _168
REMARK   72  A    between atoms: _168  and  _169
REMARK   73  A    between atoms: _172  and  _174
REMARK   74  A    between atoms: _174  and  _175
REMARK   75  A    between atoms: _174  and  _177
REMARK   76  A    between atoms: _179  and  _181
REMARK   77  A    between atoms: _181  and  _182
REMARK   78  A    between atoms: _181  and  _184
REMARK   79  A    between atoms: _184  and  _185
REMARK   80  A    between atoms: _188  and  _190
REMARK   81  A    between atoms: _190  and  _191
REMARK   82  A    between atoms: _190  and  _193
REMARK   83  A    between atoms: _193  and  _194
REMARK   84  A    between atoms: _197  and  _199
REMARK   85  A    between atoms: _199  and  _200
REMARK   86  A    between atoms: _199  and  _202
REMARK   87  A    between atoms: _202  and  _203
REMARK   88  A    between atoms: _206  and  _208
REMARK   89  A    between atoms: _208  and  _209
REMARK   90  A    between atoms: _208  and  _211
REMARK   91  A    between atoms: _211  and  _212
REMARK   92  A    between atoms: _215  and  _217
REMARK   93  A    between atoms: _217  and  _218
REMARK   94  A    between atoms: _217  and  _220
REMARK   95  A    between atoms: _220  and  _221
REMARK   96  A    between atoms: _224  and  _226
REMARK   97  A    between atoms: _226  and  _227
REMARK   98  A    between atoms: _226  and  _229
REMARK   99  A    between atoms: _229  and  _230
REMARK  100  A    between atoms: _233  and  _235
REMARK  101  A    between atoms: _235  and  _236
REMARK  102  A    between atoms: _235  and  _238
REMARK  103  A    between atoms: _238  and  _239
REMARK  104  A    between atoms: _239  and  _240
REMARK  105  A    between atoms: _240  and  _241
REMARK  106  A    between atoms: _250  and  _252
REMARK  107  A    between atoms: _252  and  _253
REMARK  108  A    between atoms: _252  and  _255
REMARK  109  A    between atoms: _255  and  _256
REMARK  110  A    between atoms: _259  and  _261
REMARK  111  A    between atoms: _261  and  _262
REMARK  112  A    between atoms: _261  and  _264
REMARK  113  A    between atoms: _266  and  _268
REMARK  114  A    between atoms: _268  and  _269
REMARK  115  A    between atoms: _268  and  _271
REMARK  116  A    between atoms: _271  and  _272
REMARK  117  A    between atoms: _275  and  _277
REMARK  118  A    between atoms: _277  and  _278
REMARK  119  A    between atoms: _277  and  _280
REMARK  120  A    between atoms: _280  and  _281
REMARK  121  A    between atoms: _281  and  _282
REMARK  122  A    between atoms: _282  and  _283
REMARK  123  A    between atoms: _292  and  _294
REMARK  124  A    between atoms: _294  and  _295
REMARK  125  A    between atoms: _294  and  _297
REMARK  126  A    between atoms: _297  and  _298
REMARK  127  A    between atoms: _298  and  _299
REMARK  128  A    between atoms: _301  and  _303
REMARK  129  A    between atoms: _303  and  _304
REMARK  130  A    between atoms: _303  and  _306
REMARK  131  A    between atoms: _306  and  _307
REMARK  132  A    between atoms: _310  and  _312
REMARK  133  A    between atoms: _312  and  _313
REMARK  134  A    between atoms: _312  and  _315
REMARK  135  A    between atoms: _315  and  _316
REMARK  136  A    between atoms: _322  and  _324
REMARK  137  A    between atoms: _324  and  _325
REMARK  138  A    between atoms: _324  and  _327
REMARK  139  A    between atoms: _327  and  _328
REMARK  140  A    between atoms: _330  and  _332
REMARK  141  A    between atoms: _332  and  _333
REMARK  142  A    between atoms: _332  and  _335
REMARK  143  A    between atoms: _335  and  _336
REMARK  144  A    between atoms: _339  and  _341
REMARK  145  A    between atoms: _341  and  _342
REMARK  146  A    between atoms: _344  and  _346
REMARK  147  A    between atoms: _346  and  _347
REMARK  148  A    between atoms: _346  and  _349
REMARK  149  A    between atoms: _349  and  _350
REMARK  150  A    between atoms: _353  and  _355
REMARK  151  A    between atoms: _355  and  _356
REMARK  152  A    between atoms: _355  and  _358
REMARK  153  A    between atoms: _358  and  _359
REMARK  154  A    between atoms: _359  and  _360
REMARK  155  A    between atoms: _362  and  _364
REMARK  156  A    between atoms: _364  and  _365
REMARK  157  A    between atoms: _364  and  _367
REMARK  158  A    between atoms: _367  and  _368
REMARK  159  A    between atoms: _373  and  _375
REMARK  160  A    between atoms: _375  and  _376
REMARK  161  A    between atoms: _379  and  _381
REMARK  162  A    between atoms: _381  and  _382
REMARK  163  A    between atoms: _384  and  _386
REMARK  164  A    between atoms: _386  and  _387
REMARK  165  A    between atoms: _386  and  _389
REMARK  166  A    between atoms: _389  and  _390
REMARK  167  A    between atoms: _396  and  _398
REMARK  168  A    between atoms: _398  and  _399
REMARK  169  A    between atoms: _401  and  _403
REMARK  170  A    between atoms: _403  and  _404
REMARK  171  A    between atoms: _403  and  _406
REMARK  172  A    between atoms: _406  and  _407
REMARK  173  A    between atoms: _410  and  _412
REMARK  174  A    between atoms: _412  and  _413
REMARK  175  A    between atoms: _412  and  _415
REMARK  176  A    between atoms: _415  and  _416
REMARK  177  A    between atoms: _419  and  _421
REMARK  178  A    between atoms: _421  and  _422
REMARK  179  A    between atoms: _421  and  _424
REMARK  180  A    between atoms: _424  and  _425
REMARK  181  A    between atoms: _428  and  _430
REMARK  182  A    between atoms: _430  and  _431
REMARK  183  A    between atoms: _430  and  _433
REMARK  184  A    between atoms: _436  and  _438
REMARK  185  A    between atoms: _438  and  _439
REMARK  186  A    between atoms: _438  and  _441
REMARK  187  A    between atoms: _441  and  _442
REMARK  188  A    between atoms: _445  and  _447
REMARK  189  A    between atoms: _447  and  _448
REMARK  190  A    between atoms: _447  and  _450
REMARK  191  A    between atoms: _450  and  _451
REMARK  192  A    between atoms: _453  and  _455
REMARK  193  A    between atoms: _455  and  _456
REMARK  194  A    between atoms: _459  and  _461
REMARK  195  A    between atoms: _461  and  _462
REMARK  196  A    between atoms: _461  and  _464
REMARK  197  A    between atoms: _464  and  _465
REMARK  198  A    between atoms: _465  and  _466
REMARK  199  A    between atoms: _466  and  _467
REMARK  200  A    between atoms: _467  and  _468
REMARK  201  A    between atoms: _472  and  _474
REMARK  202  A    between atoms: _474  and  _475
REMARK  203  A    between atoms: _477  and  _479
REMARK  204  A    between atoms: _479  and  _480
REMARK  205  A    between atoms: _483  and  _485
REMARK  206  A    between atoms: _485  and  _486
REMARK  207  A    between atoms: _485  and  _488
REMARK  208  A    between atoms: _488  and  _489
REMARK  209  A    between atoms: _489  and  _490
REMARK  210  A    between atoms: _493  and  _495
REMARK  211  A    between atoms: _495  and  _496
REMARK  212  A    between atoms: _495  and  _498
REMARK  213  A    between atoms: _498  and  _499
REMARK  214  A    between atoms: _499  and  _500
REMARK  215  A    between atoms: _500  and  _501
REMARK  216  A    between atoms: _510  and  _512
REMARK  217  A    between atoms: _512  and  _513
REMARK  218  A    between atoms: _512  and  _515
REMARK  219  A    between atoms: _518  and  _520
REMARK  220  A    between atoms: _520  and  _521
REMARK  221  A    between atoms: _520  and  _523
REMARK  222  A    between atoms: _523  and  _524
REMARK  223  A    between atoms: _527  and  _529
REMARK  224  A    between atoms: _529  and  _530
REMARK  225  A    between atoms: _529  and  _532
REMARK  226  A    between atoms: _532  and  _533
REMARK  227  A    between atoms: _536  and  _538
REMARK  228  A    between atoms: _538  and  _539
REMARK  229  A    between atoms: _538  and  _541
REMARK  230  A    between atoms: _541  and  _542
REMARK  231  A    between atoms: _545  and  _547
REMARK  232  A    between atoms: _547  and  _548
REMARK  233  A    between atoms: _547  and  _550
REMARK  234  A    between atoms: _550  and  _551
REMARK  235  A    between atoms: _551  and  _552
REMARK  236  A    between atoms: _552  and  _553
REMARK  237  A    between atoms: _553  and  _554
REMARK  238  A    between atoms: _558  and  _560
REMARK  239  A    between atoms: _560  and  _561
REMARK  240  A    between atoms: _560  and  _563
REMARK  241  A    between atoms: _563  and  _564
REMARK  242  A    between atoms: _564  and  _565
REMARK  243  A    between atoms: _568  and  _569
REMARK  244  A    between atoms: _574  and  _576
REMARK  245  A    between atoms: _576  and  _577
REMARK  246  A    between atoms: _576  and  _579
REMARK  247  A    between atoms: _579  and  _580
REMARK  248  A    between atoms: _583  and  _585
REMARK  249  A    between atoms: _585  and  _586
REMARK  250  A    between atoms: _585  and  _588
REMARK  251  A    between atoms: _588  and  _589
REMARK  252  A    between atoms: _589  and  _590
REMARK  253  A    between atoms: _595  and  _597
REMARK  254  A    between atoms: _597  and  _598
REMARK  255  A    between atoms: _597  and  _600
REMARK  256  A    between atoms: _600  and  _601
REMARK  257  A    between atoms: _601  and  _602
REMARK  258  A    between atoms: _604  and  _606
REMARK  259  A    between atoms: _606  and  _607
REMARK  260  A    between atoms: _606  and  _609
REMARK  261  A    between atoms: _609  and  _610
REMARK                            x       y       z     vdW  Elec       q    Type
REMARK                         _______ _______ _______ _____ _____    ______ ____
ROOT
ATOM      1  O   HOH     1      37.280  27.422 108.314  0.00  0.00    +0.000 OA
ENDROOT
TORSDOF 0
REMARK  Name = ../refined-set-2016/1xap/1xap_pocket.pdb
REMARK  261 active torsions:
REMARK  status: ('A' for Active; 'I' for Inactive)
REMARK    1  A    between atoms: _1  and  _3
REMARK    2  A    between atoms: _3  and  _4
REMARK    3  A    between atoms: _3  and  _6
REMARK    4  A    between atoms: _6  and  _7
REMARK    5  A    between atoms: _10  and  _12
REMARK    6  A    between atoms: _12  and  _13
REMARK    7  A    between atoms: _12  and  _15
REMARK    8  A    between atoms: _15  and  _16
REMARK    9  A    between atoms: _23  and  _24
REMARK   10  A    between atoms: _29  and  _31
REMARK   11  A    between atoms: _31  and  _32
REMARK   12  A    between atoms: _31  and  _34
REMARK   13  A    between atoms: _34  and  _35
REMARK   14  A    between atoms: _38  and  _40
REMARK   15  A    between atoms: _40  and  _41
REMARK   16  A    between atoms: _40  and  _43
REMARK   17  A    between atoms: _43  and  _44
REMARK   18  A    between atoms: _54  and  _56
REMARK   19  A    between atoms: _56  and  _57
REMARK   20  A    between atoms: _56  and  _59
REMARK   21  A    between atoms: _59  and  _60
REMARK   22  A    between atoms: _60  and  _61
REMARK   23  A    between atoms: _61  and  _62
REMARK   24  A    between atoms: _62  and  _63
REMARK   25  A    between atoms: _67  and  _69
REMARK   26  A    between atoms: _69  and  _70
REMARK   27  A    between atoms: _69  and  _72
REMARK   28  A    between atoms: _72  and  _73
REMARK   29  A    between atoms: _79  and  _81
REMARK   30  A    between atoms: _81  and  _82
REMARK   31  A    between atoms: _81  and  _84
REMARK   32  A    between atoms: _84  and  _85
REMARK   33  A    between atoms: _87  and  _89
REMARK   34  A    between atoms: _89  and  _90
REMARK   35  A    between atoms: _89  and  _92
REMARK   36  A    between atoms: _92  and  _93
REMARK   37  A    between atoms: _93  and  _94
REMARK   38  A    between atoms: _97  and  _99
REMARK   39  A    between atoms: _99  and  _100
REMARK   40  A    between atoms: _99  and  _102
REMARK   41  A    between atoms: _102  and  _103
REMARK   42  A    between atoms: _106  and  _108
REMARK   43  A    between atoms: _108  and  _109
REMARK   44  A    between atoms: _112  and  _114
REMARK   45  A    between atoms: _114  and  _115
REMARK   46  A    between atoms: _114  and  _117
REMARK   47  A    between atoms: _117  and  _118
REMARK   48  A    between atoms: _121  and  _123
REMARK   49  A    between atoms: _123  and  _124
REMARK   50  A    between atoms: _123  and  _126
REMARK   51  A    between atoms: _126  and  _127
REMARK   52  A    between atoms: _127  and  _128
REMARK   53  A    between atoms: _128  and  _129
REMARK   54  A    between atoms: _129  and  _130
REMARK   55  A    between atoms: _134  and  _136
REMARK   56  A    between atoms: _136  and  _137
REMARK   57  A    between atoms: _136  and  _139
REMARK   58  A    between atoms: _141  and  _143
REMARK   59  A    between atoms: _143  and  _144
REMARK   60  A    between atoms: _143  and  _146
REMARK   61  A    between atoms: _146  and  _147
REMARK   62  A    between atoms: _150  and  _152
REMARK   63  A    between atoms: _152  and  _153
REMARK   64  A    between atoms: _152  and  _155
REMARK   65  A    between atoms: _155  and  _156
REMARK   66  A    between atoms: _156  and  _157
REMARK   67  A    between atoms: _157  and  _158
REMARK   68  A    between atoms: _158  and  _159
REMARK   69  A    between atoms: _163  and  _165
REMARK   70  A    between atoms: _165  and  _166
REMARK   71  A    between atoms: _165  and  _168
REMARK   72  A    between atoms: _168  and  _169
REMARK   73  A    between atoms: _172  and  _174
REMARK   74  A    between atoms: _174  and  _175
REMARK   75  A    between atoms: _174  and  _177
REMARK   76  A    between atoms: _179  and  _181
REMARK   77  A    between atoms: _181  and  _182
REMARK   78  A    between atoms: _181  and  _184
REMARK   79  A    between atoms: _184  and  _185
REMARK   80  A    between atoms: _188  and  _190
REMARK   81  A    between atoms: _190  and  _191
REMARK   82  A    between atoms: _190  and  _193
REMARK   83  A    between atoms: _193  and  _194
REMARK   84  A    between atoms: _197  and  _199
REMARK   85  A    between atoms: _199  and  _200
REMARK   86  A    between atoms: _199  and  _202
REMARK   87  A    between atoms: _202  and  _203
REMARK   88  A    between atoms: _206  and  _208
REMARK   89  A    between atoms: _208  and  _209
REMARK   90  A    between atoms: _208  and  _211
REMARK   91  A    between atoms: _211  and  _212
REMARK   92  A    between atoms: _215  and  _217
REMARK   93  A    between atoms: _217  and  _218
REMARK   94  A    between atoms: _217  and  _220
REMARK   95  A    between atoms: _220  and  _221
REMARK   96  A    between atoms: _224  and  _226
REMARK   97  A    between atoms: _226  and  _227
REMARK   98  A    between atoms: _226  and  _229
REMARK   99  A    between atoms: _229  and  _230
REMARK  100  A    between atoms: _233  and  _235
REMARK  101  A    between atoms: _235  and  _236
REMARK  102  A    between atoms: _235  and  _238
REMARK  103  A    between atoms: _238  and  _239
REMARK  104  A    between atoms: _239  and  _240
REMARK  105  A    between atoms: _240  and  _241
REMARK  106  A    between atoms: _250  and  _252
REMARK  107  A    between atoms: _252  and  _253
REMARK  108  A    between atoms: _252  and  _255
REMARK  109  A    between atoms: _255  and  _256
REMARK  110  A    between atoms: _259  and  _261
REMARK  111  A    between atoms: _261  and  _262
REMARK  112  A    between atoms: _261  and  _264
REMARK  113  A    between atoms: _266  and  _268
REMARK  114  A    between atoms: _268  and  _269
REMARK  115  A    between atoms: _268  and  _271
REMARK  116  A    between atoms: _271  and  _272
REMARK  117  A    between atoms: _275  and  _277
REMARK  118  A    between atoms: _277  and  _278
REMARK  119  A    between atoms: _277  and  _280
REMARK  120  A    between atoms: _280  and  _281
REMARK  121  A    between atoms: _281  and  _282
REMARK  122  A    between atoms: _282  and  _283
REMARK  123  A    between atoms: _292  and  _294
REMARK  124  A    between atoms: _294  and  _295
REMARK  125  A    between atoms: _294  and  _297
REMARK  126  A    between atoms: _297  and  _298
REMARK  127  A    between atoms: _298  and  _299
REMARK  128  A    between atoms: _301  and  _303
REMARK  129  A    between atoms: _303  and  _304
REMARK  130  A    between atoms: _303  and  _306
REMARK  131  A    between atoms: _306  and  _307
REMARK  132  A    between atoms: _310  and  _312
REMARK  133  A    between atoms: _312  and  _313
REMARK  134  A    between atoms: _312  and  _315
REMARK  135  A    between atoms: _315  and  _316
REMARK  136  A    between atoms: _322  and  _324
REMARK  137  A    between atoms: _324  and  _325
REMARK  138  A    between atoms: _324  and  _327
REMARK  139  A    between atoms: _327  and  _328
REMARK  140  A    between atoms: _330  and  _332
REMARK  141  A    between atoms: _332  and  _333
REMARK  142  A    between atoms: _332  and  _335
REMARK  143  A    between atoms: _335  and  _336
REMARK  144  A    between atoms: _339  and  _341
REMARK  145  A    between atoms: _341  and  _342
REMARK  146  A    between atoms: _344  and  _346
REMARK  147  A    between atoms: _346  and  _347
REMARK  148  A    between atoms: _346  and  _349
REMARK  149  A    between atoms: _349  and  _350
REMARK  150  A    between atoms: _353  and  _355
REMARK  151  A    between atoms: _355  and  _356
REMARK  152  A    between atoms: _355  and  _358
REMARK  153  A    between atoms: _358  and  _359
REMARK  154  A    between atoms: _359  and  _360
REMARK  155  A    between atoms: _362  and  _364
REMARK  156  A    between atoms: _364  and  _365
REMARK  157  A    between atoms: _364  and  _367
REMARK  158  A    between atoms: _367  and  _368
REMARK  159  A    between atoms: _373  and  _375
REMARK  160  A    between atoms: _375  and  _376
REMARK  161  A    between atoms: _379  and  _381
REMARK  162  A    between atoms: _381  and  _382
REMARK  163  A    between atoms: _384  and  _386
REMARK  164  A    between atoms: _386  and  _387
REMARK  165  A    between atoms: _386  and  _389
REMARK  166  A    between atoms: _389  and  _390
REMARK  167  A    between atoms: _396  and  _398
REMARK  168  A    between atoms: _398  and  _399
REMARK  169  A    between atoms: _401  and  _403
REMARK  170  A    between atoms: _403  and  _404
REMARK  171  A    between atoms: _403  and  _406
REMARK  172  A    between atoms: _406  and  _407
REMARK  173  A    between atoms: _410  and  _412
REMARK  174  A    between atoms: _412  and  _413
REMARK  175  A    between atoms: _412  and  _415
REMARK  176  A    between atoms: _415  and  _416
REMARK  177  A    between atoms: _419  and  _421
REMARK  178  A    between atoms: _421  and  _422
REMARK  179  A    between atoms: _421  and  _424
REMARK  180  A    between atoms: _424  and  _425
REMARK  181  A    between atoms: _428  and  _430
REMARK  182  A    between atoms: _430  and  _431
REMARK  183  A    between atoms: _430  and  _433
REMARK  184  A    between atoms: _436  and  _438
REMARK  185  A    between atoms: _438  and  _439
REMARK  186  A    between atoms: _438  and  _441
REMARK  187  A    between atoms: _441  and  _442
REMARK  188  A    between atoms: _445  and  _447
REMARK  189  A    between atoms: _447  and  _448
REMARK  190  A    between atoms: _447  and  _450
REMARK  191  A    between atoms: _450  and  _451
REMARK  192  A    between atoms: _453  and  _455
REMARK  193  A    between atoms: _455  and  _456
REMARK  194  A    between atoms: _459  and  _461
REMARK  195  A    between atoms: _461  and  _462
REMARK  196  A    between atoms: _461  and  _464
REMARK  197  A    between atoms: _464  and  _465
REMARK  198  A    between atoms: _465  and  _466
REMARK  199  A    between atoms: _466  and  _467
REMARK  200  A    between atoms: _467  and  _468
REMARK  201  A    between atoms: _472  and  _474
REMARK  202  A    between atoms: _474  and  _475
REMARK  203  A    between atoms: _477  and  _479
REMARK  204  A    between atoms: _479  and  _480
REMARK  205  A    between atoms: _483  and  _485
REMARK  206  A    between atoms: _485  and  _486
REMARK  207  A    between atoms: _485  and  _488
REMARK  208  A    between atoms: _488  and  _489
REMARK  209  A    between atoms: _489  and  _490
REMARK  210  A    between atoms: _493  and  _495
REMARK  211  A    between atoms: _495  and  _496
REMARK  212  A    between atoms: _495  and  _498
REMARK  213  A    between atoms: _498  and  _499
REMARK  214  A    between atoms: _499  and  _500
REMARK  215  A    between atoms: _500  and  _501
REMARK  216  A    between atoms: _510  and  _512
REMARK  217  A    between atoms: _512  and  _513
REMARK  218  A    between atoms: _512  and  _515
REMARK  219  A    between atoms: _518  and  _520
REMARK  220  A    between atoms: _520  and  _521
REMARK  221  A    between atoms: _520  and  _523
REMARK  222  A    between atoms: _523  and  _524
REMARK  223  A    between atoms: _527  and  _529
REMARK  224  A    between atoms: _529  and  _530
REMARK  225  A    between atoms: _529  and  _532
REMARK  226  A    between atoms: _532  and  _533
REMARK  227  A    between atoms: _536  and  _538
REMARK  228  A    between atoms: _538  and  _539
REMARK  229  A    between atoms: _538  and  _541
REMARK  230  A    between atoms: _541  and  _542
REMARK  231  A    between atoms: _545  and  _547
REMARK  232  A    between atoms: _547  and  _548
REMARK  233  A    between atoms: _547  and  _550
REMARK  234  A    between atoms: _550  and  _551
REMARK  235  A    between atoms: _551  and  _552
REMARK  236  A    between atoms: _552  and  _553
REMARK  237  A    between atoms: _553  and  _554
REMARK  238  A    between atoms: _558  and  _560
REMARK  239  A    between atoms: _560  and  _561
REMARK  240  A    between atoms: _560  and  _563
REMARK  241  A    between atoms: _563  and  _564
REMARK  242  A    between atoms: _564  and  _565
REMARK  243  A    between atoms: _568  and  _569
REMARK  244  A    between atoms: _574  and  _576
REMARK  245  A    between atoms: _576  and  _577
REMARK  246  A    between atoms: _576  and  _579
REMARK  247  A    between atoms: _579  and  _580
REMARK  248  A    between atoms: _583  and  _585
REMARK  249  A    between atoms: _585  and  _586
REMARK  250  A    between atoms: _585  and  _588
REMARK  251  A    between atoms: _588  and  _589
REMARK  252  A    between atoms: _589  and  _590
REMARK  253  A    between atoms: _595  and  _597
REMARK  254  A    between atoms: _597  and  _598
REMARK  255  A    between atoms: _597  and  _600
REMARK  256  A    between atoms: _600  and  _601
REMARK  257  A    between atoms: _601  and  _602
REMARK  258  A    between atoms: _604  and  _606
REMARK  259  A    between atoms: _606  and  _607
REMARK  260  A    between atoms: _606  and  _609
REMARK  261  A    between atoms: _609  and  _610
REMARK                            x       y       z     vdW  Elec       q    Type
REMARK                         _______ _______ _______ _____ _____    ______ ____
ROOT
ATOM      1  O   HOH     1      52.061  17.922 104.099  0.00  0.00    +0.000 OA
ENDROOT
TORSDOF 0
REMARK  Name = ../refined-set-2016/1xap/1xap_pocket.pdb
REMARK  261 active torsions:
REMARK  status: ('A' for Active; 'I' for Inactive)
REMARK    1  A    between atoms: _1  and  _3
REMARK    2  A    between atoms: _3  and  _4
REMARK    3  A    between atoms: _3  and  _6
REMARK    4  A    between atoms: _6  and  _7
REMARK    5  A    between atoms: _10  and  _12
REMARK    6  A    between atoms: _12  and  _13
REMARK    7  A    between atoms: _12  and  _15
REMARK    8  A    between atoms: _15  and  _16
REMARK    9  A    between atoms: _23  and  _24
REMARK   10  A    between atoms: _29  and  _31
REMARK   11  A    between atoms: _31  and  _32
REMARK   12  A    between atoms: _31  and  _34
REMARK   13  A    between atoms: _34  and  _35
REMARK   14  A    between atoms: _38  and  _40
REMARK   15  A    between atoms: _40  and  _41
REMARK   16  A    between atoms: _40  and  _43
REMARK   17  A    between atoms: _43  and  _44
REMARK   18  A    between atoms: _54  and  _56
REMARK   19  A    between atoms: _56  and  _57
REMARK   20  A    between atoms: _56  and  _59
REMARK   21  A    between atoms: _59  and  _60
REMARK   22  A    between atoms: _60  and  _61
REMARK   23  A    between atoms: _61  and  _62
REMARK   24  A    between atoms: _62  and  _63
REMARK   25  A    between atoms: _67  and  _69
REMARK   26  A    between atoms: _69  and  _70
REMARK   27  A    between atoms: _69  and  _72
REMARK   28  A    between atoms: _72  and  _73
REMARK   29  A    between atoms: _79  and  _81
REMARK   30  A    between atoms: _81  and  _82
REMARK   31  A    between atoms: _81  and  _84
REMARK   32  A    between atoms: _84  and  _85
REMARK   33  A    between atoms: _87  and  _89
REMARK   34  A    between atoms: _89  and  _90
REMARK   35  A    between atoms: _89  and  _92
REMARK   36  A    between atoms: _92  and  _93
REMARK   37  A    between atoms: _93  and  _94
REMARK   38  A    between atoms: _97  and  _99
REMARK   39  A    between atoms: _99  and  _100
REMARK   40  A    between atoms: _99  and  _102
REMARK   41  A    between atoms: _102  and  _103
REMARK   42  A    between atoms: _106  and  _108
REMARK   43  A    between atoms: _108  and  _109
REMARK   44  A    between atoms: _112  and  _114
REMARK   45  A    between atoms: _114  and  _115
REMARK   46  A    between atoms: _114  and  _117
REMARK   47  A    between atoms: _117  and  _118
REMARK   48  A    between atoms: _121  and  _123
REMARK   49  A    between atoms: _123  and  _124
REMARK   50  A    between atoms: _123  and  _126
REMARK   51  A    between atoms: _126  and  _127
REMARK   52  A    between atoms: _127  and  _128
REMARK   53  A    between atoms: _128  and  _129
REMARK   54  A    between atoms: _129  and  _130
REMARK   55  A    between atoms: _134  and  _136
REMARK   56  A    between atoms: _136  and  _137
REMARK   57  A    between atoms: _136  and  _139
REMARK   58  A    between atoms: _141  and  _143
REMARK   59  A    between atoms: _143  and  _144
REMARK   60  A    between atoms: _143  and  _146
REMARK   61  A    between atoms: _146  and  _147
REMARK   62  A    between atoms: _150  and  _152
REMARK   63  A    between atoms: _152  and  _153
REMARK   64  A    between atoms: _152  and  _155
REMARK   65  A    between atoms: _155  and  _156
REMARK   66  A    between atoms: _156  and  _157
REMARK   67  A    between atoms: _157  and  _158
REMARK   68  A    between atoms: _158  and  _159
REMARK   69  A    between atoms: _163  and  _165
REMARK   70  A    between atoms: _165  and  _166
REMARK   71  A    between atoms: _165  and  _168
REMARK   72  A    between atoms: _168  and  _169
REMARK   73  A    between atoms: _172  and  _174
REMARK   74  A    between atoms: _174  and  _175
REMARK   75  A    between atoms: _174  and  _177
REMARK   76  A    between atoms: _179  and  _181
REMARK   77  A    between atoms: _181  and  _182
REMARK   78  A    between atoms: _181  and  _184
REMARK   79  A    between atoms: _184  and  _185
REMARK   80  A    between atoms: _188  and  _190
REMARK   81  A    between atoms: _190  and  _191
REMARK   82  A    between atoms: _190  and  _193
REMARK   83  A    between atoms: _193  and  _194
REMARK   84  A    between atoms: _197  and  _199
REMARK   85  A    between atoms: _199  and  _200
REMARK   86  A    between atoms: _199  and  _202
REMARK   87  A    between atoms: _202  and  _203
REMARK   88  A    between atoms: _206  and  _208
REMARK   89  A    between atoms: _208  and  _209
REMARK   90  A    between atoms: _208  and  _211
REMARK   91  A    between atoms: _211  and  _212
REMARK   92  A    between atoms: _215  and  _217
REMARK   93  A    between atoms: _217  and  _218
REMARK   94  A    between atoms: _217  and  _220
REMARK   95  A    between atoms: _220  and  _221
REMARK   96  A    between atoms: _224  and  _226
REMARK   97  A    between atoms: _226  and  _227
REMARK   98  A    between atoms: _226  and  _229
REMARK   99  A    between atoms: _229  and  _230
REMARK  100  A    between atoms: _233  and  _235
REMARK  101  A    between atoms: _235  and  _236
REMARK  102  A    between atoms: _235  and  _238
REMARK  103  A    between atoms: _238  and  _239
REMARK  104  A    between atoms: _239  and  _240
REMARK  105  A    between atoms: _240  and  _241
REMARK  106  A    between atoms: _250  and  _252
REMARK  107  A    between atoms: _252  and  _253
REMARK  108  A    between atoms: _252  and  _255
REMARK  109  A    between atoms: _255  and  _256
REMARK  110  A    between atoms: _259  and  _261
REMARK  111  A    between atoms: _261  and  _262
REMARK  112  A    between atoms: _261  and  _264
REMARK  113  A    between atoms: _266  and  _268
REMARK  114  A    between atoms: _268  and  _269
REMARK  115  A    between atoms: _268  and  _271
REMARK  116  A    between atoms: _271  and  _272
REMARK  117  A    between atoms: _275  and  _277
REMARK  118  A    between atoms: _277  and  _278
REMARK  119  A    between atoms: _277  and  _280
REMARK  120  A    between atoms: _280  and  _281
REMARK  121  A    between atoms: _281  and  _282
REMARK  122  A    between atoms: _282  and  _283
REMARK  123  A    between atoms: _292  and  _294
REMARK  124  A    between atoms: _294  and  _295
REMARK  125  A    between atoms: _294  and  _297
REMARK  126  A    between atoms: _297  and  _298
REMARK  127  A    between atoms: _298  and  _299
REMARK  128  A    between atoms: _301  and  _303
REMARK  129  A    between atoms: _303  and  _304
REMARK  130  A    between atoms: _303  and  _306
REMARK  131  A    between atoms: _306  and  _307
REMARK  132  A    between atoms: _310  and  _312
REMARK  133  A    between atoms: _312  and  _313
REMARK  134  A    between atoms: _312  and  _315
REMARK  135  A    between atoms: _315  and  _316
REMARK  136  A    between atoms: _322  and  _324
REMARK  137  A    between atoms: _324  and  _325
REMARK  138  A    between atoms: _324  and  _327
REMARK  139  A    between atoms: _327  and  _328
REMARK  140  A    between atoms: _330  and  _332
REMARK  141  A    between atoms: _332  and  _333
REMARK  142  A    between atoms: _332  and  _335
REMARK  143  A    between atoms: _335  and  _336
REMARK  144  A    between atoms: _339  and  _341
REMARK  145  A    between atoms: _341  and  _342
REMARK  146  A    between atoms: _344  and  _346
REMARK  147  A    between atoms: _346  and  _347
REMARK  148  A    between atoms: _346  and  _349
REMARK  149  A    between atoms: _349  and  _350
REMARK  150  A    between atoms: _353  and  _355
REMARK  151  A    between atoms: _355  and  _356
REMARK  152  A    between atoms: _355  and  _358
REMARK  153  A    between atoms: _358  and  _359
REMARK  154  A    between atoms: _359  and  _360
REMARK  155  A    between atoms: _362  and  _364
REMARK  156  A    between atoms: _364  and  _365
REMARK  157  A    between atoms: _364  and  _367
REMARK  158  A    between atoms: _367  and  _368
REMARK  159  A    between atoms: _373  and  _375
REMARK  160  A    between atoms: _375  and  _376
REMARK  161  A    between atoms: _379  and  _381
REMARK  162  A    between atoms: _381  and  _382
REMARK  163  A    between atoms: _384  and  _386
REMARK  164  A    between atoms: _386  and  _387
REMARK  165  A    between atoms: _386  and  _389
REMARK  166  A    between atoms: _389  and  _390
REMARK  167  A    between atoms: _396  and  _398
REMARK  168  A    between atoms: _398  and  _399
REMARK  169  A    between atoms: _401  and  _403
REMARK  170  A    between atoms: _403  and  _404
REMARK  171  A    between atoms: _403  and  _406
REMARK  172  A    between atoms: _406  and  _407
REMARK  173  A    between atoms: _410  and  _412
REMARK  174  A    between atoms: _412  and  _413
REMARK  175  A    between atoms: _412  and  _415
REMARK  176  A    between atoms: _415  and  _416
REMARK  177  A    between atoms: _419  and  _421
REMARK  178  A    between atoms: _421  and  _422
REMARK  179  A    between atoms: _421  and  _424
REMARK  180  A    between atoms: _424  and  _425
REMARK  181  A    between atoms: _428  and  _430
REMARK  182  A    between atoms: _430  and  _431
REMARK  183  A    between atoms: _430  and  _433
REMARK  184  A    between atoms: _436  and  _438
REMARK  185  A    between atoms: _438  and  _439
REMARK  186  A    between atoms: _438  and  _441
REMARK  187  A    between atoms: _441  and  _442
REMARK  188  A    between atoms: _445  and  _447
REMARK  189  A    between atoms: _447  and  _448
REMARK  190  A    between atoms: _447  and  _450
REMARK  191  A    between atoms: _450  and  _451
REMARK  192  A    between atoms: _453  and  _455
REMARK  193  A    between atoms: _455  and  _456
REMARK  194  A    between atoms: _459  and  _461
REMARK  195  A    between atoms: _461  and  _462
REMARK  196  A    between atoms: _461  and  _464
REMARK  197  A    between atoms: _464  and  _465
REMARK  198  A    between atoms: _465  and  _466
REMARK  199  A    between atoms: _466  and  _467
REMARK  200  A    between atoms: _467  and  _468
REMARK  201  A    between atoms: _472  and  _474
REMARK  202  A    between atoms: _474  and  _475
REMARK  203  A    between atoms: _477  and  _479
REMARK  204  A    between atoms: _479  and  _480
REMARK  205  A    between atoms: _483  and  _485
REMARK  206  A    between atoms: _485  and  _486
REMARK  207  A    between atoms: _485  and  _488
REMARK  208  A    between atoms: _488  and  _489
REMARK  209  A    between atoms: _489  and  _490
REMARK  210  A    between atoms: _493  and  _495
REMARK  211  A    between atoms: _495  and  _496
REMARK  212  A    between atoms: _495  and  _498
REMARK  213  A    between atoms: _498  and  _499
REMARK  214  A    between atoms: _499  and  _500
REMARK  215  A    between atoms: _500  and  _501
REMARK  216  A    between atoms: _510  and  _512
REMARK  217  A    between atoms: _512  and  _513
REMARK  218  A    between atoms: _512  and  _515
REMARK  219  A    between atoms: _518  and  _520
REMARK  220  A    between atoms: _520  and  _521
REMARK  221  A    between atoms: _520  and  _523
REMARK  222  A    between atoms: _523  and  _524
REMARK  223  A    between atoms: _527  and  _529
REMARK  224  A    between atoms: _529  and  _530
REMARK  225  A    between atoms: _529  and  _532
REMARK  226  A    between atoms: _532  and  _533
REMARK  227  A    between atoms: _536  and  _538
REMARK  228  A    between atoms: _538  and  _539
REMARK  229  A    between atoms: _538  and  _541
REMARK  230  A    between atoms: _541  and  _542
REMARK  231  A    between atoms: _545  and  _547
REMARK  232  A    between atoms: _547  and  _548
REMARK  233  A    between atoms: _547  and  _550
REMARK  234  A    between atoms: _550  and  _551
REMARK  235  A    between atoms: _551  and  _552
REMARK  236  A    between atoms: _552  and  _553
REMARK  237  A    between atoms: _553  and  _554
REMARK  238  A    between atoms: _558  and  _560
REMARK  239  A    between atoms: _560  and  _561
REMARK  240  A    between atoms: _560  and  _563
REMARK  241  A    between atoms: _563  and  _564
REMARK  242  A    between atoms: _564  and  _565
REMARK  243  A    between atoms: _568  and  _569
REMARK  244  A    between atoms: _574  and  _576
REMARK  245  A    between atoms: _576  and  _577
REMARK  246  A    between atoms: _576  and  _579
REMARK  247  A    between atoms: _579  and  _580
REMARK  248  A    between atoms: _583  and  _585
REMARK  249  A    between atoms: _585  and  _586
REMARK  250  A    between atoms: _585  and  _588
REMARK  251  A    between atoms: _588  and  _589
REMARK  252  A    between atoms: _589  and  _590
REMARK  253  A    between atoms: _595  and  _597
REMARK  254  A    between atoms: _597  and  _598
REMARK  255  A    between atoms: _597  and  _600
REMARK  256  A    between atoms: _600  and  _601
REMARK  257  A    between atoms: _601  and  _602
REMARK  258  A    between atoms: _604  and  _606
REMARK  259  A    between atoms: _606  and  _607
REMARK  260  A    between atoms: _606  and  _609
REMARK  261  A    between atoms: _609  and  _610
REMARK                            x       y       z     vdW  Elec       q    Type
REMARK                         _______ _______ _______ _____ _____    ______ ____
ROOT
ATOM      1  O   HOH     1      38.733  29.036 106.483  0.00  0.00    +0.000 OA
ENDROOT
TORSDOF 0
