REMARK  Name = ../refined-set-2016/4xtx/4xtx_pocket.pdb
REMARK  233 active torsions:
REMARK  status: ('A' for Active; 'I' for Inactive)
REMARK    1  A    between atoms: _1  and  _3
REMARK    2  A    between atoms: _3  and  _4
REMARK    3  A    between atoms: _3  and  _6
REMARK    4  A    between atoms: _6  and  _7
REMARK    5  A    between atoms: _10  and  _12
REMARK    6  A    between atoms: _12  and  _13
REMARK    7  A    between atoms: _15  and  _17
REMARK    8  A    between atoms: _17  and  _18
REMARK    9  A    between atoms: _17  and  _20
REMARK   10  A    between atoms: _20  and  _21
REMARK   11  A    between atoms: _23  and  _25
REMARK   12  A    between atoms: _25  and  _26
REMARK   13  A    between atoms: _25  and  _28
REMARK   14  A    between atoms: _28  and  _29
REMARK   15  A    between atoms: _32  and  _34
REMARK   16  A    between atoms: _34  and  _35
REMARK   17  A    between atoms: _34  and  _37
REMARK   18  A    between atoms: _37  and  _38
REMARK   19  A    between atoms: _43  and  _45
REMARK   20  A    between atoms: _45  and  _46
REMARK   21  A    between atoms: _49  and  _51
REMARK   22  A    between atoms: _51  and  _52
REMARK   23  A    between atoms: _51  and  _54
REMARK   24  A    between atoms: _54  and  _55
REMARK   25  A    between atoms: _58  and  _60
REMARK   26  A    between atoms: _60  and  _61
REMARK   27  A    between atoms: _60  and  _63
REMARK   28  A    between atoms: _63  and  _64
REMARK   29  A    between atoms: _67  and  _69
REMARK   30  A    between atoms: _69  and  _70
REMARK   31  A    between atoms: _69  and  _72
REMARK   32  A    between atoms: _72  and  _73
REMARK   33  A    between atoms: _76  and  _78
REMARK   34  A    between atoms: _78  and  _79
REMARK   35  A    between atoms: _82  and  _84
REMARK   36  A    between atoms: _84  and  _85
REMARK   37  A    between atoms: _84  and  _87
REMARK   38  A    between atoms: _87  and  _88
REMARK   39  A    between atoms: _88  and  _89
REMARK   40  A    between atoms: _94  and  _96
REMARK   41  A    between atoms: _96  and  _97
REMARK   42  A    between atoms: _96  and  _99
REMARK   43  A    between atoms: _99  and  _100
REMARK   44  A    between atoms: _103  and  _105
REMARK   45  A    between atoms: _105  and  _106
REMARK   46  A    between atoms: _109  and  _111
REMARK   47  A    between atoms: _111  and  _112
REMARK   48  A    between atoms: _114  and  _116
REMARK   49  A    between atoms: _116  and  _117
REMARK   50  A    between atoms: _116  and  _119
REMARK   51  A    between atoms: _119  and  _120
REMARK   52  A    between atoms: _120  and  _121
REMARK   53  A    between atoms: _121  and  _122
REMARK   54  A    between atoms: _131  and  _133
REMARK   55  A    between atoms: _133  and  _134
REMARK   56  A    between atoms: _136  and  _138
REMARK   57  A    between atoms: _138  and  _139
REMARK   58  A    between atoms: _138  and  _141
REMARK   59  A    between atoms: _141  and  _142
REMARK   60  A    between atoms: _142  and  _143
REMARK   61  A    between atoms: _143  and  _144
REMARK   62  A    between atoms: _153  and  _155
REMARK   63  A    between atoms: _155  and  _156
REMARK   64  A    between atoms: _155  and  _158
REMARK   65  A    between atoms: _158  and  _159
REMARK   66  A    between atoms: _164  and  _166
REMARK   67  A    between atoms: _166  and  _167
REMARK   68  A    between atoms: _169  and  _171
REMARK   69  A    between atoms: _171  and  _172
REMARK   70  A    between atoms: _171  and  _174
REMARK   71  A    between atoms: _174  and  _175
REMARK   72  A    between atoms: _175  and  _176
REMARK   73  A    between atoms: _176  and  _177
REMARK   74  A    between atoms: _186  and  _188
REMARK   75  A    between atoms: _188  and  _189
REMARK   76  A    between atoms: _191  and  _193
REMARK   77  A    between atoms: _193  and  _194
REMARK   78  A    between atoms: _193  and  _196
REMARK   79  A    between atoms: _196  and  _197
REMARK   80  A    between atoms: _207  and  _209
REMARK   81  A    between atoms: _209  and  _210
REMARK   82  A    between atoms: _213  and  _215
REMARK   83  A    between atoms: _215  and  _216
REMARK   84  A    between atoms: _219  and  _221
REMARK   85  A    between atoms: _221  and  _222
REMARK   86  A    between atoms: _221  and  _224
REMARK   87  A    between atoms: _224  and  _225
REMARK   88  A    between atoms: _228  and  _230
REMARK   89  A    between atoms: _230  and  _231
REMARK   90  A    between atoms: _234  and  _236
REMARK   91  A    between atoms: _236  and  _237
REMARK   92  A    between atoms: _236  and  _239
REMARK   93  A    between atoms: _239  and  _240
REMARK   94  A    between atoms: _240  and  _241
REMARK   95  A    between atoms: _246  and  _248
REMARK   96  A    between atoms: _248  and  _249
REMARK   97  A    between atoms: _248  and  _251
REMARK   98  A    between atoms: _251  and  _252
REMARK   99  A    between atoms: _255  and  _257
REMARK  100  A    between atoms: _257  and  _258
REMARK  101  A    between atoms: _257  and  _260
REMARK  102  A    between atoms: _260  and  _261
REMARK  103  A    between atoms: _264  and  _266
REMARK  104  A    between atoms: _266  and  _267
REMARK  105  A    between atoms: _266  and  _269
REMARK  106  A    between atoms: _269  and  _270
REMARK  107  A    between atoms: _273  and  _275
REMARK  108  A    between atoms: _275  and  _276
REMARK  109  A    between atoms: _275  and  _278
REMARK  110  A    between atoms: _278  and  _279
REMARK  111  A    between atoms: _281  and  _283
REMARK  112  A    between atoms: _283  and  _284
REMARK  113  A    between atoms: _283  and  _286
REMARK  114  A    between atoms: _289  and  _291
REMARK  115  A    between atoms: _291  and  _292
REMARK  116  A    between atoms: _291  and  _294
REMARK  117  A    between atoms: _294  and  _295
REMARK  118  A    between atoms: _295  and  _296
REMARK  119  A    between atoms: _296  and  _297
REMARK  120  A    between atoms: _297  and  _298
REMARK  121  A    between atoms: _303  and  _304
REMARK  122  A    between atoms: _309  and  _311
REMARK  123  A    between atoms: _311  and  _312
REMARK  124  A    between atoms: _311  and  _314
REMARK  125  A    between atoms: _314  and  _315
REMARK  126  A    between atoms: _320  and  _322
REMARK  127  A    between atoms: _322  and  _323
REMARK  128  A    between atoms: _322  and  _325
REMARK  129  A    between atoms: _325  and  _326
REMARK  130  A    between atoms: _329  and  _331
REMARK  131  A    between atoms: _331  and  _332
REMARK  132  A    between atoms: _331  and  _334
REMARK  133  A    between atoms: _337  and  _339
REMARK  134  A    between atoms: _339  and  _340
REMARK  135  A    between atoms: _342  and  _344
REMARK  136  A    between atoms: _344  and  _345
REMARK  137  A    between atoms: _344  and  _347
REMARK  138  A    between atoms: _347  and  _348
REMARK  139  A    between atoms: _348  and  _349
REMARK  140  A    between atoms: _349  and  _350
REMARK  141  A    between atoms: _350  and  _351
REMARK  142  A    between atoms: _355  and  _357
REMARK  143  A    between atoms: _357  and  _358
REMARK  144  A    between atoms: _357  and  _360
REMARK  145  A    between atoms: _360  and  _361
REMARK  146  A    between atoms: _364  and  _366
REMARK  147  A    between atoms: _366  and  _367
REMARK  148  A    between atoms: _370  and  _372
REMARK  149  A    between atoms: _372  and  _373
REMARK  150  A    between atoms: _375  and  _377
REMARK  151  A    between atoms: _377  and  _378
REMARK  152  A    between atoms: _377  and  _380
REMARK  153  A    between atoms: _380  and  _381
REMARK  154  A    between atoms: _384  and  _386
REMARK  155  A    between atoms: _386  and  _387
REMARK  156  A    between atoms: _386  and  _389
REMARK  157  A    between atoms: _389  and  _390
REMARK  158  A    between atoms: _393  and  _395
REMARK  159  A    between atoms: _395  and  _396
REMARK  160  A    between atoms: _399  and  _401
REMARK  161  A    between atoms: _401  and  _402
REMARK  162  A    between atoms: _401  and  _404
REMARK  163  A    between atoms: _404  and  _405
REMARK  164  A    between atoms: _405  and  _406
REMARK  165  A    between atoms: _409  and  _411
REMARK  166  A    between atoms: _411  and  _412
REMARK  167  A    between atoms: _411  and  _414
REMARK  168  A    between atoms: _417  and  _419
REMARK  169  A    between atoms: _419  and  _420
REMARK  170  A    between atoms: _419  and  _422
REMARK  171  A    between atoms: _422  and  _423
REMARK  172  A    between atoms: _426  and  _428
REMARK  173  A    between atoms: _428  and  _429
REMARK  174  A    between atoms: _431  and  _433
REMARK  175  A    between atoms: _433  and  _434
REMARK  176  A    between atoms: _433  and  _436
REMARK  177  A    between atoms: _439  and  _441
REMARK  178  A    between atoms: _441  and  _442
REMARK  179  A    between atoms: _444  and  _446
REMARK  180  A    between atoms: _446  and  _447
REMARK  181  A    between atoms: _446  and  _449
REMARK  182  A    between atoms: _449  and  _450
REMARK  183  A    between atoms: _453  and  _455
REMARK  184  A    between atoms: _455  and  _456
REMARK  185  A    between atoms: _455  and  _458
REMARK  186  A    between atoms: _458  and  _459
REMARK  187  A    between atoms: _464  and  _466
REMARK  188  A    between atoms: _466  and  _467
REMARK  189  A    between atoms: _466  and  _469
REMARK  190  A    between atoms: _472  and  _474
REMARK  191  A    between atoms: _474  and  _475
REMARK  192  A    between atoms: _474  and  _477
REMARK  193  A    between atoms: _477  and  _478
REMARK  194  A    between atoms: _478  and  _479
REMARK  195  A    between atoms: _484  and  _486
REMARK  196  A    between atoms: _486  and  _487
REMARK  197  A    between atoms: _491  and  _492
REMARK  198  A    between atoms: _497  and  _499
REMARK  199  A    between atoms: _499  and  _500
REMARK  200  A    between atoms: _499  and  _502
REMARK  201  A    between atoms: _502  and  _503
REMARK  202  A    between atoms: _503  and  _504
REMARK  203  A    between atoms: _507  and  _509
REMARK  204  A    between atoms: _509  and  _510
REMARK  205  A    between atoms: _509  and  _512
REMARK  206  A    between atoms: _515  and  _517
REMARK  207  A    between atoms: _517  and  _518
REMARK  208  A    between atoms: _517  and  _520
REMARK  209  A    between atoms: _520  and  _521
REMARK  210  A    between atoms: _525  and  _526
REMARK  211  A    between atoms: _531  and  _533
REMARK  212  A    between atoms: _533  and  _534
REMARK  213  A    between atoms: _533  and  _536
REMARK  214  A    between atoms: _536  and  _537
REMARK  215  A    between atoms: _540  and  _542
REMARK  216  A    between atoms: _542  and  _543
REMARK  217  A    between atoms: _546  and  _548
REMARK  218  A    between atoms: _548  and  _549
REMARK  219  A    between atoms: _548  and  _551
REMARK  220  A    between atoms: _551  and  _552
REMARK  221  A    between atoms: _555  and  _557
REMARK  222  A    between atoms: _557  and  _558
REMARK  223  A    between atoms: _557  and  _560
REMARK  224  A    between atoms: _560  and  _561
REMARK  225  A    between atoms: _563  and  _565
REMARK  226  A    between atoms: _565  and  _566
REMARK  227  A    between atoms: _568  and  _570
REMARK  228  A    between atoms: _570  and  _571
REMARK  229  A    between atoms: _570  and  _573
REMARK  230  A    between atoms: _573  and  _574
REMARK  231  A    between atoms: _577  and  _579
REMARK  232  A    between atoms: _579  and  _580
REMARK  233  A    between atoms: _579  and  _582
REMARK                            x       y       z     vdW  Elec       q    Type
REMARK                         _______ _______ _______ _____ _____    ______ ____
ROOT
ATOM      1  C   THR A   4       1.429 -13.515  17.689  0.00  0.00    +0.243 C 
ATOM      2  O   THR A   4       1.709 -14.689  17.925  0.00  0.00    -0.273 OA
ATOM      3  N   ASN A   5       1.328 -13.033  16.455  0.00  0.00    -0.297 N 
ATOM      4  H   ASN A   5       1.007 -12.054  16.313  0.00  0.00    +0.150 HD
ENDROOT
BRANCH   3   5
ATOM      5  CA  ASN A   5       1.660 -13.854  15.297  0.00  0.00    +0.158 C 
BRANCH   5   6
ATOM      6  C   ASN A   5       3.131 -14.251  15.315  0.00  0.00    +0.241 C 
ATOM      7  N   ALA A   6       4.000 -13.272  15.548  0.00  0.00    -0.297 N 
ATOM      8  H   ALA A   6       3.642 -12.308  15.706  0.00  0.00    +0.150 HD
ATOM      9  O   ASN A   5       3.466 -15.419  15.136  0.00  0.00    -0.273 OA
BRANCH   7  10
ATOM     10  CA  ALA A   6       5.440 -13.507  15.589  0.00  0.00    +0.149 C 
ATOM     11  CB  ALA A   6       6.182 -12.196  15.799  0.00  0.00    +0.031 C 
BRANCH  10  12
ATOM     12  C   ALA A   6       5.820 -14.506  16.677  0.00  0.00    +0.241 C 
ATOM     13  N   ASP A   7       5.133 -14.430  17.813  0.00  0.00    -0.297 N 
ATOM     14  H   ASP A   7       4.364 -13.735  17.896  0.00  0.00    +0.150 HD
ATOM     15  O   ALA A   6       6.716 -15.331  16.488  0.00  0.00    -0.273 OA
BRANCH  13  16
ATOM     16  CA  ASP A   7       5.433 -15.299  18.946  0.00  0.00    +0.160 C 
BRANCH  16  17
ATOM     17  C   ASP A   7       5.110 -16.761  18.647  0.00  0.00    +0.241 C 
ATOM     18  O   ASP A   7       5.908 -17.648  18.943  0.00  0.00    -0.273 OA
ATOM     19  N   LEU A   8       3.942 -17.013  18.062  0.00  0.00    -0.298 N 
ATOM     20  H   LEU A   8       3.295 -16.227  17.849  0.00  0.00    +0.150 HD
BRANCH  19  21
ATOM     21  CA  LEU A   8       3.555 -18.377  17.715  0.00  0.00    +0.137 C 
BRANCH  21  22
ATOM     22  C   LEU A   8       4.385 -18.900  16.549  0.00  0.00    +0.227 C 
ATOM     23  O   LEU A   8       4.620 -20.104  16.437  0.00  0.00    -0.286 OA
ENDBRANCH  21  22
BRANCH  21  24
ATOM     24  CB  LEU A   8       2.064 -18.455  17.375  0.00  0.00    +0.028 C 
BRANCH  24  25
ATOM     25  CG  LEU A   8       1.081 -18.308  18.539  0.00  0.00    +0.002 C 
ATOM     26  CD2 LEU A   8       1.539 -19.110  19.747  0.00  0.00    +0.000 C 
ATOM     27  CD1 LEU A   8      -0.319 -18.731  18.108  0.00  0.00    +0.000 C 
ENDBRANCH  24  25
ENDBRANCH  21  24
ENDBRANCH  19  21
ENDBRANCH  16  17
BRANCH  16  28
ATOM     28  CB  ASP A   7       4.670 -14.839  20.190  0.00  0.00    +0.143 C 
BRANCH  28  29
ATOM     29  CG  ASP A   7       5.160 -13.503  20.714  0.00  0.00    +0.367 C 
ATOM     30  OD2 ASP A   7       4.384 -12.818  21.413  0.00  0.00    -0.246 OA
ATOM     31  OD1 ASP A   7       6.322 -13.139  20.433  0.00  0.00    -0.246 OA
ENDBRANCH  28  29
ENDBRANCH  16  28
ENDBRANCH  13  16
ENDBRANCH  10  12
ENDBRANCH   7  10
ENDBRANCH   5   6
BRANCH   5  32
ATOM     32  CB  ASN A   5       1.330 -13.121  13.996  0.00  0.00    +0.114 C 
BRANCH  32  33
ATOM     33  CG  ASN A   5      -0.018 -13.520  13.431  0.00  0.00    +0.222 C 
ATOM     34  OD1 ASN A   5      -0.926 -13.895  14.171  0.00  0.00    -0.275 OA
ATOM     35  ND2 ASN A   5      -0.152 -13.451  12.113  0.00  0.00    -0.329 N 
ATOM     36 HD21 ASN A   5      -1.052 -13.720  11.667  0.00  0.00    +0.145 HD
ATOM     37 HD22 ASN A   5       0.643 -13.128  11.526  0.00  0.00    +0.145 HD
ENDBRANCH  32  33
ENDBRANCH   5  32
ENDBRANCH   3   5
BRANCH   1  38
ATOM     38  CA  THR A   4       1.178 -12.531  18.826  0.00  0.00    +0.176 C 
BRANCH  38  40
ATOM     39  C   SER A   3       2.933 -10.943  18.267  0.00  0.00    +0.243 C 
ATOM     40  N   THR A   4       1.642 -11.195  18.464  0.00  0.00    -0.295 N 
ATOM     41  H   THR A   4       0.950 -10.426  18.358  0.00  0.00    +0.150 HD
ATOM     42  O   SER A   3       3.805 -11.806  18.369  0.00  0.00    -0.273 OA
BRANCH  39  43
ATOM     43  CA  SER A   3       3.303  -9.509  17.905  0.00  0.00    +0.178 C 
BRANCH  43  45
ATOM     44  C   GLY A   2       4.504  -7.711  19.034  0.00  0.00    +0.243 C 
ATOM     45  N   SER A   3       4.321  -9.009  18.820  0.00  0.00    -0.295 N 
ATOM     46  H   SER A   3       4.924  -9.691  19.322  0.00  0.00    +0.150 HD
ATOM     47  O   GLY A   2       3.846  -6.837  18.471  0.00  0.00    -0.273 OA
BRANCH  44  48
ATOM     48  CA  GLY A   2       5.582  -7.353  20.037  0.00  0.00    +0.176 C 
BRANCH  48  51
ATOM     49  C   THR A   1       4.328  -7.672  22.086  0.00  0.00    +0.241 C 
ATOM     50  O   THR A   1       3.569  -6.738  21.824  0.00  0.00    -0.274 OA
ATOM     51  N   GLY A   2       5.344  -8.018  21.303  0.00  0.00    -0.295 N 
ATOM     52  H   GLY A   2       5.982  -8.782  21.605  0.00  0.00    +0.150 HD
BRANCH  49  53
ATOM     53  CA  THR A   1       4.138  -8.496  23.353  0.00  0.00    +0.172 C 
BRANCH  53  54
ATOM     54  N   THR A   1       3.154  -7.874  24.228  0.00  0.00    -0.236 NA
ATOM     55  H   THR A   1       2.400  -7.293  23.809  0.00  0.00    +0.142 HD
ENDBRANCH  53  54
BRANCH  53  56
ATOM     56  CB  THR A   1       3.730  -9.925  22.966  0.00  0.00    +0.135 C 
ATOM     57  CG2 THR A   1       2.424  -9.909  22.190  0.00  0.00    +0.034 C 
BRANCH  56  58
ATOM     58  OG1 THR A   1       4.756 -10.512  22.155  0.00  0.00    -0.383 OA
ATOM     59  HG1 THR A   1       4.492 -11.433  21.906  0.00  0.00    +0.210 HD
ENDBRANCH  56  58
ENDBRANCH  53  56
ENDBRANCH  49  53
ENDBRANCH  48  51
ENDBRANCH  44  48
ENDBRANCH  43  45
BRANCH  43  60
ATOM     60  CB  SER A   3       3.795  -9.434  16.457  0.00  0.00    +0.166 C 
BRANCH  60  61
ATOM     61  OG  SER A   3       2.878 -10.050  15.570  0.00  0.00    -0.380 OA
ATOM     62  H   SER A   3       2.003  -9.591  15.630  0.00  0.00    +0.211 HD
ENDBRANCH  60  61
ENDBRANCH  43  60
ENDBRANCH  39  43
ENDBRANCH  38  40
BRANCH  38  63
ATOM     63  CB  THR A   4      -0.318 -12.543  19.188  0.00  0.00    +0.137 C 
ATOM     64  CG2 THR A   4      -0.591 -11.618  20.362  0.00  0.00    +0.034 C 
BRANCH  63  65
ATOM     65  OG1 THR A   4      -1.090 -12.116  18.060  0.00  0.00    -0.382 OA
ATOM     66  HG1 THR A   4      -0.930 -12.731  17.301  0.00  0.00    +0.210 HD
ENDBRANCH  63  65
ENDBRANCH  38  63
ENDBRANCH   1  38
TORSDOF 28
REMARK  Name = ../refined-set-2016/4xtx/4xtx_pocket.pdb
REMARK  233 active torsions:
REMARK  status: ('A' for Active; 'I' for Inactive)
REMARK    1  A    between atoms: _1  and  _3
REMARK    2  A    between atoms: _3  and  _4
REMARK    3  A    between atoms: _3  and  _6
REMARK    4  A    between atoms: _6  and  _7
REMARK    5  A    between atoms: _10  and  _12
REMARK    6  A    between atoms: _12  and  _13
REMARK    7  A    between atoms: _15  and  _17
REMARK    8  A    between atoms: _17  and  _18
REMARK    9  A    between atoms: _17  and  _20
REMARK   10  A    between atoms: _20  and  _21
REMARK   11  A    between atoms: _23  and  _25
REMARK   12  A    between atoms: _25  and  _26
REMARK   13  A    between atoms: _25  and  _28
REMARK   14  A    between atoms: _28  and  _29
REMARK   15  A    between atoms: _32  and  _34
REMARK   16  A    between atoms: _34  and  _35
REMARK   17  A    between atoms: _34  and  _37
REMARK   18  A    between atoms: _37  and  _38
REMARK   19  A    between atoms: _43  and  _45
REMARK   20  A    between atoms: _45  and  _46
REMARK   21  A    between atoms: _49  and  _51
REMARK   22  A    between atoms: _51  and  _52
REMARK   23  A    between atoms: _51  and  _54
REMARK   24  A    between atoms: _54  and  _55
REMARK   25  A    between atoms: _58  and  _60
REMARK   26  A    between atoms: _60  and  _61
REMARK   27  A    between atoms: _60  and  _63
REMARK   28  A    between atoms: _63  and  _64
REMARK   29  A    between atoms: _67  and  _69
REMARK   30  A    between atoms: _69  and  _70
REMARK   31  A    between atoms: _69  and  _72
REMARK   32  A    between atoms: _72  and  _73
REMARK   33  A    between atoms: _76  and  _78
REMARK   34  A    between atoms: _78  and  _79
REMARK   35  A    between atoms: _82  and  _84
REMARK   36  A    between atoms: _84  and  _85
REMARK   37  A    between atoms: _84  and  _87
REMARK   38  A    between atoms: _87  and  _88
REMARK   39  A    between atoms: _88  and  _89
REMARK   40  A    between atoms: _94  and  _96
REMARK   41  A    between atoms: _96  and  _97
REMARK   42  A    between atoms: _96  and  _99
REMARK   43  A    between atoms: _99  and  _100
REMARK   44  A    between atoms: _103  and  _105
REMARK   45  A    between atoms: _105  and  _106
REMARK   46  A    between atoms: _109  and  _111
REMARK   47  A    between atoms: _111  and  _112
REMARK   48  A    between atoms: _114  and  _116
REMARK   49  A    between atoms: _116  and  _117
REMARK   50  A    between atoms: _116  and  _119
REMARK   51  A    between atoms: _119  and  _120
REMARK   52  A    between atoms: _120  and  _121
REMARK   53  A    between atoms: _121  and  _122
REMARK   54  A    between atoms: _131  and  _133
REMARK   55  A    between atoms: _133  and  _134
REMARK   56  A    between atoms: _136  and  _138
REMARK   57  A    between atoms: _138  and  _139
REMARK   58  A    between atoms: _138  and  _141
REMARK   59  A    between atoms: _141  and  _142
REMARK   60  A    between atoms: _142  and  _143
REMARK   61  A    between atoms: _143  and  _144
REMARK   62  A    between atoms: _153  and  _155
REMARK   63  A    between atoms: _155  and  _156
REMARK   64  A    between atoms: _155  and  _158
REMARK   65  A    between atoms: _158  and  _159
REMARK   66  A    between atoms: _164  and  _166
REMARK   67  A    between atoms: _166  and  _167
REMARK   68  A    between atoms: _169  and  _171
REMARK   69  A    between atoms: _171  and  _172
REMARK   70  A    between atoms: _171  and  _174
REMARK   71  A    between atoms: _174  and  _175
REMARK   72  A    between atoms: _175  and  _176
REMARK   73  A    between atoms: _176  and  _177
REMARK   74  A    between atoms: _186  and  _188
REMARK   75  A    between atoms: _188  and  _189
REMARK   76  A    between atoms: _191  and  _193
REMARK   77  A    between atoms: _193  and  _194
REMARK   78  A    between atoms: _193  and  _196
REMARK   79  A    between atoms: _196  and  _197
REMARK   80  A    between atoms: _207  and  _209
REMARK   81  A    between atoms: _209  and  _210
REMARK   82  A    between atoms: _213  and  _215
REMARK   83  A    between atoms: _215  and  _216
REMARK   84  A    between atoms: _219  and  _221
REMARK   85  A    between atoms: _221  and  _222
REMARK   86  A    between atoms: _221  and  _224
REMARK   87  A    between atoms: _224  and  _225
REMARK   88  A    between atoms: _228  and  _230
REMARK   89  A    between atoms: _230  and  _231
REMARK   90  A    between atoms: _234  and  _236
REMARK   91  A    between atoms: _236  and  _237
REMARK   92  A    between atoms: _236  and  _239
REMARK   93  A    between atoms: _239  and  _240
REMARK   94  A    between atoms: _240  and  _241
REMARK   95  A    between atoms: _246  and  _248
REMARK   96  A    between atoms: _248  and  _249
REMARK   97  A    between atoms: _248  and  _251
REMARK   98  A    between atoms: _251  and  _252
REMARK   99  A    between atoms: _255  and  _257
REMARK  100  A    between atoms: _257  and  _258
REMARK  101  A    between atoms: _257  and  _260
REMARK  102  A    between atoms: _260  and  _261
REMARK  103  A    between atoms: _264  and  _266
REMARK  104  A    between atoms: _266  and  _267
REMARK  105  A    between atoms: _266  and  _269
REMARK  106  A    between atoms: _269  and  _270
REMARK  107  A    between atoms: _273  and  _275
REMARK  108  A    between atoms: _275  and  _276
REMARK  109  A    between atoms: _275  and  _278
REMARK  110  A    between atoms: _278  and  _279
REMARK  111  A    between atoms: _281  and  _283
REMARK  112  A    between atoms: _283  and  _284
REMARK  113  A    between atoms: _283  and  _286
REMARK  114  A    between atoms: _289  and  _291
REMARK  115  A    between atoms: _291  and  _292
REMARK  116  A    between atoms: _291  and  _294
REMARK  117  A    between atoms: _294  and  _295
REMARK  118  A    between atoms: _295  and  _296
REMARK  119  A    between atoms: _296  and  _297
REMARK  120  A    between atoms: _297  and  _298
REMARK  121  A    between atoms: _303  and  _304
REMARK  122  A    between atoms: _309  and  _311
REMARK  123  A    between atoms: _311  and  _312
REMARK  124  A    between atoms: _311  and  _314
REMARK  125  A    between atoms: _314  and  _315
REMARK  126  A    between atoms: _320  and  _322
REMARK  127  A    between atoms: _322  and  _323
REMARK  128  A    between atoms: _322  and  _325
REMARK  129  A    between atoms: _325  and  _326
REMARK  130  A    between atoms: _329  and  _331
REMARK  131  A    between atoms: _331  and  _332
REMARK  132  A    between atoms: _331  and  _334
REMARK  133  A    between atoms: _337  and  _339
REMARK  134  A    between atoms: _339  and  _340
REMARK  135  A    between atoms: _342  and  _344
REMARK  136  A    between atoms: _344  and  _345
REMARK  137  A    between atoms: _344  and  _347
REMARK  138  A    between atoms: _347  and  _348
REMARK  139  A    between atoms: _348  and  _349
REMARK  140  A    between atoms: _349  and  _350
REMARK  141  A    between atoms: _350  and  _351
REMARK  142  A    between atoms: _355  and  _357
REMARK  143  A    between atoms: _357  and  _358
REMARK  144  A    between atoms: _357  and  _360
REMARK  145  A    between atoms: _360  and  _361
REMARK  146  A    between atoms: _364  and  _366
REMARK  147  A    between atoms: _366  and  _367
REMARK  148  A    between atoms: _370  and  _372
REMARK  149  A    between atoms: _372  and  _373
REMARK  150  A    between atoms: _375  and  _377
REMARK  151  A    between atoms: _377  and  _378
REMARK  152  A    between atoms: _377  and  _380
REMARK  153  A    between atoms: _380  and  _381
REMARK  154  A    between atoms: _384  and  _386
REMARK  155  A    between atoms: _386  and  _387
REMARK  156  A    between atoms: _386  and  _389
REMARK  157  A    between atoms: _389  and  _390
REMARK  158  A    between atoms: _393  and  _395
REMARK  159  A    between atoms: _395  and  _396
REMARK  160  A    between atoms: _399  and  _401
REMARK  161  A    between atoms: _401  and  _402
REMARK  162  A    between atoms: _401  and  _404
REMARK  163  A    between atoms: _404  and  _405
REMARK  164  A    between atoms: _405  and  _406
REMARK  165  A    between atoms: _409  and  _411
REMARK  166  A    between atoms: _411  and  _412
REMARK  167  A    between atoms: _411  and  _414
REMARK  168  A    between atoms: _417  and  _419
REMARK  169  A    between atoms: _419  and  _420
REMARK  170  A    between atoms: _419  and  _422
REMARK  171  A    between atoms: _422  and  _423
REMARK  172  A    between atoms: _426  and  _428
REMARK  173  A    between atoms: _428  and  _429
REMARK  174  A    between atoms: _431  and  _433
REMARK  175  A    between atoms: _433  and  _434
REMARK  176  A    between atoms: _433  and  _436
REMARK  177  A    between atoms: _439  and  _441
REMARK  178  A    between atoms: _441  and  _442
REMARK  179  A    between atoms: _444  and  _446
REMARK  180  A    between atoms: _446  and  _447
REMARK  181  A    between atoms: _446  and  _449
REMARK  182  A    between atoms: _449  and  _450
REMARK  183  A    between atoms: _453  and  _455
REMARK  184  A    between atoms: _455  and  _456
REMARK  185  A    between atoms: _455  and  _458
REMARK  186  A    between atoms: _458  and  _459
REMARK  187  A    between atoms: _464  and  _466
REMARK  188  A    between atoms: _466  and  _467
REMARK  189  A    between atoms: _466  and  _469
REMARK  190  A    between atoms: _472  and  _474
REMARK  191  A    between atoms: _474  and  _475
REMARK  192  A    between atoms: _474  and  _477
REMARK  193  A    between atoms: _477  and  _478
REMARK  194  A    between atoms: _478  and  _479
REMARK  195  A    between atoms: _484  and  _486
REMARK  196  A    between atoms: _486  and  _487
REMARK  197  A    between atoms: _491  and  _492
REMARK  198  A    between atoms: _497  and  _499
REMARK  199  A    between atoms: _499  and  _500
REMARK  200  A    between atoms: _499  and  _502
REMARK  201  A    between atoms: _502  and  _503
REMARK  202  A    between atoms: _503  and  _504
REMARK  203  A    between atoms: _507  and  _509
REMARK  204  A    between atoms: _509  and  _510
REMARK  205  A    between atoms: _509  and  _512
REMARK  206  A    between atoms: _515  and  _517
REMARK  207  A    between atoms: _517  and  _518
REMARK  208  A    between atoms: _517  and  _520
REMARK  209  A    between atoms: _520  and  _521
REMARK  210  A    between atoms: _525  and  _526
REMARK  211  A    between atoms: _531  and  _533
REMARK  212  A    between atoms: _533  and  _534
REMARK  213  A    between atoms: _533  and  _536
REMARK  214  A    between atoms: _536  and  _537
REMARK  215  A    between atoms: _540  and  _542
REMARK  216  A    between atoms: _542  and  _543
REMARK  217  A    between atoms: _546  and  _548
REMARK  218  A    between atoms: _548  and  _549
REMARK  219  A    between atoms: _548  and  _551
REMARK  220  A    between atoms: _551  and  _552
REMARK  221  A    between atoms: _555  and  _557
REMARK  222  A    between atoms: _557  and  _558
REMARK  223  A    between atoms: _557  and  _560
REMARK  224  A    between atoms: _560  and  _561
REMARK  225  A    between atoms: _563  and  _565
REMARK  226  A    between atoms: _565  and  _566
REMARK  227  A    between atoms: _568  and  _570
REMARK  228  A    between atoms: _570  and  _571
REMARK  229  A    between atoms: _570  and  _573
REMARK  230  A    between atoms: _573  and  _574
REMARK  231  A    between atoms: _577  and  _579
REMARK  232  A    between atoms: _579  and  _580
REMARK  233  A    between atoms: _579  and  _582
REMARK                            x       y       z     vdW  Elec       q    Type
REMARK                         _______ _______ _______ _____ _____    ______ ____
ROOT
ATOM      1  CA  LEU A   1      -2.170 -16.679  22.442  0.00  0.00    +0.133 C 
ENDROOT
BRANCH   1   2
ATOM      2  N   LEU A   1      -2.926 -17.705  21.736  0.00  0.00    -0.239 NA
ATOM      3  H   LEU A   1      -3.145 -17.573  20.728  0.00  0.00    +0.142 HD
ENDBRANCH   1   2
BRANCH   1   4
ATOM      4  C   LEU A   1      -2.883 -15.337  22.349  0.00  0.00    +0.224 C 
ATOM      5  O   LEU A   1      -3.127 -14.834  21.257  0.00  0.00    -0.287 OA
ENDBRANCH   1   4
BRANCH   1   6
ATOM      6  CB  LEU A   1      -0.751 -16.564  21.882  0.00  0.00    +0.025 C 
BRANCH   6   7
ATOM      7  CG  LEU A   1       0.108 -15.447  22.483  0.00  0.00    +0.002 C 
ATOM      8  CD2 LEU A   1       0.314 -15.660  23.977  0.00  0.00    +0.000 C 
ATOM      9  CD1 LEU A   1       1.445 -15.341  21.764  0.00  0.00    +0.000 C 
ENDBRANCH   6   7
ENDBRANCH   1   6
TORSDOF 4
REMARK  Name = ../refined-set-2016/4xtx/4xtx_pocket.pdb
REMARK  233 active torsions:
REMARK  status: ('A' for Active; 'I' for Inactive)
REMARK    1  A    between atoms: _1  and  _3
REMARK    2  A    between atoms: _3  and  _4
REMARK    3  A    between atoms: _3  and  _6
REMARK    4  A    between atoms: _6  and  _7
REMARK    5  A    between atoms: _10  and  _12
REMARK    6  A    between atoms: _12  and  _13
REMARK    7  A    between atoms: _15  and  _17
REMARK    8  A    between atoms: _17  and  _18
REMARK    9  A    between atoms: _17  and  _20
REMARK   10  A    between atoms: _20  and  _21
REMARK   11  A    between atoms: _23  and  _25
REMARK   12  A    between atoms: _25  and  _26
REMARK   13  A    between atoms: _25  and  _28
REMARK   14  A    between atoms: _28  and  _29
REMARK   15  A    between atoms: _32  and  _34
REMARK   16  A    between atoms: _34  and  _35
REMARK   17  A    between atoms: _34  and  _37
REMARK   18  A    between atoms: _37  and  _38
REMARK   19  A    between atoms: _43  and  _45
REMARK   20  A    between atoms: _45  and  _46
REMARK   21  A    between atoms: _49  and  _51
REMARK   22  A    between atoms: _51  and  _52
REMARK   23  A    between atoms: _51  and  _54
REMARK   24  A    between atoms: _54  and  _55
REMARK   25  A    between atoms: _58  and  _60
REMARK   26  A    between atoms: _60  and  _61
REMARK   27  A    between atoms: _60  and  _63
REMARK   28  A    between atoms: _63  and  _64
REMARK   29  A    between atoms: _67  and  _69
REMARK   30  A    between atoms: _69  and  _70
REMARK   31  A    between atoms: _69  and  _72
REMARK   32  A    between atoms: _72  and  _73
REMARK   33  A    between atoms: _76  and  _78
REMARK   34  A    between atoms: _78  and  _79
REMARK   35  A    between atoms: _82  and  _84
REMARK   36  A    between atoms: _84  and  _85
REMARK   37  A    between atoms: _84  and  _87
REMARK   38  A    between atoms: _87  and  _88
REMARK   39  A    between atoms: _88  and  _89
REMARK   40  A    between atoms: _94  and  _96
REMARK   41  A    between atoms: _96  and  _97
REMARK   42  A    between atoms: _96  and  _99
REMARK   43  A    between atoms: _99  and  _100
REMARK   44  A    between atoms: _103  and  _105
REMARK   45  A    between atoms: _105  and  _106
REMARK   46  A    between atoms: _109  and  _111
REMARK   47  A    between atoms: _111  and  _112
REMARK   48  A    between atoms: _114  and  _116
REMARK   49  A    between atoms: _116  and  _117
REMARK   50  A    between atoms: _116  and  _119
REMARK   51  A    between atoms: _119  and  _120
REMARK   52  A    between atoms: _120  and  _121
REMARK   53  A    between atoms: _121  and  _122
REMARK   54  A    between atoms: _131  and  _133
REMARK   55  A    between atoms: _133  and  _134
REMARK   56  A    between atoms: _136  and  _138
REMARK   57  A    between atoms: _138  and  _139
REMARK   58  A    between atoms: _138  and  _141
REMARK   59  A    between atoms: _141  and  _142
REMARK   60  A    between atoms: _142  and  _143
REMARK   61  A    between atoms: _143  and  _144
REMARK   62  A    between atoms: _153  and  _155
REMARK   63  A    between atoms: _155  and  _156
REMARK   64  A    between atoms: _155  and  _158
REMARK   65  A    between atoms: _158  and  _159
REMARK   66  A    between atoms: _164  and  _166
REMARK   67  A    between atoms: _166  and  _167
REMARK   68  A    between atoms: _169  and  _171
REMARK   69  A    between atoms: _171  and  _172
REMARK   70  A    between atoms: _171  and  _174
REMARK   71  A    between atoms: _174  and  _175
REMARK   72  A    between atoms: _175  and  _176
REMARK   73  A    between atoms: _176  and  _177
REMARK   74  A    between atoms: _186  and  _188
REMARK   75  A    between atoms: _188  and  _189
REMARK   76  A    between atoms: _191  and  _193
REMARK   77  A    between atoms: _193  and  _194
REMARK   78  A    between atoms: _193  and  _196
REMARK   79  A    between atoms: _196  and  _197
REMARK   80  A    between atoms: _207  and  _209
REMARK   81  A    between atoms: _209  and  _210
REMARK   82  A    between atoms: _213  and  _215
REMARK   83  A    between atoms: _215  and  _216
REMARK   84  A    between atoms: _219  and  _221
REMARK   85  A    between atoms: _221  and  _222
REMARK   86  A    between atoms: _221  and  _224
REMARK   87  A    between atoms: _224  and  _225
REMARK   88  A    between atoms: _228  and  _230
REMARK   89  A    between atoms: _230  and  _231
REMARK   90  A    between atoms: _234  and  _236
REMARK   91  A    between atoms: _236  and  _237
REMARK   92  A    between atoms: _236  and  _239
REMARK   93  A    between atoms: _239  and  _240
REMARK   94  A    between atoms: _240  and  _241
REMARK   95  A    between atoms: _246  and  _248
REMARK   96  A    between atoms: _248  and  _249
REMARK   97  A    between atoms: _248  and  _251
REMARK   98  A    between atoms: _251  and  _252
REMARK   99  A    between atoms: _255  and  _257
REMARK  100  A    between atoms: _257  and  _258
REMARK  101  A    between atoms: _257  and  _260
REMARK  102  A    between atoms: _260  and  _261
REMARK  103  A    between atoms: _264  and  _266
REMARK  104  A    between atoms: _266  and  _267
REMARK  105  A    between atoms: _266  and  _269
REMARK  106  A    between atoms: _269  and  _270
REMARK  107  A    between atoms: _273  and  _275
REMARK  108  A    between atoms: _275  and  _276
REMARK  109  A    between atoms: _275  and  _278
REMARK  110  A    between atoms: _278  and  _279
REMARK  111  A    between atoms: _281  and  _283
REMARK  112  A    between atoms: _283  and  _284
REMARK  113  A    between atoms: _283  and  _286
REMARK  114  A    between atoms: _289  and  _291
REMARK  115  A    between atoms: _291  and  _292
REMARK  116  A    between atoms: _291  and  _294
REMARK  117  A    between atoms: _294  and  _295
REMARK  118  A    between atoms: _295  and  _296
REMARK  119  A    between atoms: _296  and  _297
REMARK  120  A    between atoms: _297  and  _298
REMARK  121  A    between atoms: _303  and  _304
REMARK  122  A    between atoms: _309  and  _311
REMARK  123  A    between atoms: _311  and  _312
REMARK  124  A    between atoms: _311  and  _314
REMARK  125  A    between atoms: _314  and  _315
REMARK  126  A    between atoms: _320  and  _322
REMARK  127  A    between atoms: _322  and  _323
REMARK  128  A    between atoms: _322  and  _325
REMARK  129  A    between atoms: _325  and  _326
REMARK  130  A    between atoms: _329  and  _331
REMARK  131  A    between atoms: _331  and  _332
REMARK  132  A    between atoms: _331  and  _334
REMARK  133  A    between atoms: _337  and  _339
REMARK  134  A    between atoms: _339  and  _340
REMARK  135  A    between atoms: _342  and  _344
REMARK  136  A    between atoms: _344  and  _345
REMARK  137  A    between atoms: _344  and  _347
REMARK  138  A    between atoms: _347  and  _348
REMARK  139  A    between atoms: _348  and  _349
REMARK  140  A    between atoms: _349  and  _350
REMARK  141  A    between atoms: _350  and  _351
REMARK  142  A    between atoms: _355  and  _357
REMARK  143  A    between atoms: _357  and  _358
REMARK  144  A    between atoms: _357  and  _360
REMARK  145  A    between atoms: _360  and  _361
REMARK  146  A    between atoms: _364  and  _366
REMARK  147  A    between atoms: _366  and  _367
REMARK  148  A    between atoms: _370  and  _372
REMARK  149  A    between atoms: _372  and  _373
REMARK  150  A    between atoms: _375  and  _377
REMARK  151  A    between atoms: _377  and  _378
REMARK  152  A    between atoms: _377  and  _380
REMARK  153  A    between atoms: _380  and  _381
REMARK  154  A    between atoms: _384  and  _386
REMARK  155  A    between atoms: _386  and  _387
REMARK  156  A    between atoms: _386  and  _389
REMARK  157  A    between atoms: _389  and  _390
REMARK  158  A    between atoms: _393  and  _395
REMARK  159  A    between atoms: _395  and  _396
REMARK  160  A    between atoms: _399  and  _401
REMARK  161  A    between atoms: _401  and  _402
REMARK  162  A    between atoms: _401  and  _404
REMARK  163  A    between atoms: _404  and  _405
REMARK  164  A    between atoms: _405  and  _406
REMARK  165  A    between atoms: _409  and  _411
REMARK  166  A    between atoms: _411  and  _412
REMARK  167  A    between atoms: _411  and  _414
REMARK  168  A    between atoms: _417  and  _419
REMARK  169  A    between atoms: _419  and  _420
REMARK  170  A    between atoms: _419  and  _422
REMARK  171  A    between atoms: _422  and  _423
REMARK  172  A    between atoms: _426  and  _428
REMARK  173  A    between atoms: _428  and  _429
REMARK  174  A    between atoms: _431  and  _433
REMARK  175  A    between atoms: _433  and  _434
REMARK  176  A    between atoms: _433  and  _436
REMARK  177  A    between atoms: _439  and  _441
REMARK  178  A    between atoms: _441  and  _442
REMARK  179  A    between atoms: _444  and  _446
REMARK  180  A    between atoms: _446  and  _447
REMARK  181  A    between atoms: _446  and  _449
REMARK  182  A    between atoms: _449  and  _450
REMARK  183  A    between atoms: _453  and  _455
REMARK  184  A    between atoms: _455  and  _456
REMARK  185  A    between atoms: _455  and  _458
REMARK  186  A    between atoms: _458  and  _459
REMARK  187  A    between atoms: _464  and  _466
REMARK  188  A    between atoms: _466  and  _467
REMARK  189  A    between atoms: _466  and  _469
REMARK  190  A    between atoms: _472  and  _474
REMARK  191  A    between atoms: _474  and  _475
REMARK  192  A    between atoms: _474  and  _477
REMARK  193  A    between atoms: _477  and  _478
REMARK  194  A    between atoms: _478  and  _479
REMARK  195  A    between atoms: _484  and  _486
REMARK  196  A    between atoms: _486  and  _487
REMARK  197  A    between atoms: _491  and  _492
REMARK  198  A    between atoms: _497  and  _499
REMARK  199  A    between atoms: _499  and  _500
REMARK  200  A    between atoms: _499  and  _502
REMARK  201  A    between atoms: _502  and  _503
REMARK  202  A    between atoms: _503  and  _504
REMARK  203  A    between atoms: _507  and  _509
REMARK  204  A    between atoms: _509  and  _510
REMARK  205  A    between atoms: _509  and  _512
REMARK  206  A    between atoms: _515  and  _517
REMARK  207  A    between atoms: _517  and  _518
REMARK  208  A    between atoms: _517  and  _520
REMARK  209  A    between atoms: _520  and  _521
REMARK  210  A    between atoms: _525  and  _526
REMARK  211  A    between atoms: _531  and  _533
REMARK  212  A    between atoms: _533  and  _534
REMARK  213  A    between atoms: _533  and  _536
REMARK  214  A    between atoms: _536  and  _537
REMARK  215  A    between atoms: _540  and  _542
REMARK  216  A    between atoms: _542  and  _543
REMARK  217  A    between atoms: _546  and  _548
REMARK  218  A    between atoms: _548  and  _549
REMARK  219  A    between atoms: _548  and  _551
REMARK  220  A    between atoms: _551  and  _552
REMARK  221  A    between atoms: _555  and  _557
REMARK  222  A    between atoms: _557  and  _558
REMARK  223  A    between atoms: _557  and  _560
REMARK  224  A    between atoms: _560  and  _561
REMARK  225  A    between atoms: _563  and  _565
REMARK  226  A    between atoms: _565  and  _566
REMARK  227  A    between atoms: _568  and  _570
REMARK  228  A    between atoms: _570  and  _571
REMARK  229  A    between atoms: _570  and  _573
REMARK  230  A    between atoms: _573  and  _574
REMARK  231  A    between atoms: _577  and  _579
REMARK  232  A    between atoms: _579  and  _580
REMARK  233  A    between atoms: _579  and  _582
REMARK                            x       y       z     vdW  Elec       q    Type
REMARK                         _______ _______ _______ _____ _____    ______ ____
ROOT
ATOM      1  CA  ALA A   1      -2.247 -10.150  24.328  0.00  0.00    +0.133 C 
ATOM      2  CB  ALA A   1      -1.094  -9.733  23.428  0.00  0.00    +0.027 C 
ENDROOT
BRANCH   1   3
ATOM      3  N   ALA A   1      -3.007 -11.232  23.715  0.00  0.00    -0.239 NA
ATOM      4  H   ALA A   1      -3.515 -11.057  22.825  0.00  0.00    +0.142 HD
ENDBRANCH   1   3
BRANCH   1   5
ATOM      5  C   ALA A   1      -3.136  -8.951  24.635  0.00  0.00    +0.224 C 
ATOM      6  O   ALA A   1      -3.963  -8.552  23.814  0.00  0.00    -0.287 OA
ENDBRANCH   1   5
TORSDOF 2
REMARK  Name = ../refined-set-2016/4xtx/4xtx_pocket.pdb
REMARK  233 active torsions:
REMARK  status: ('A' for Active; 'I' for Inactive)
REMARK    1  A    between atoms: _1  and  _3
REMARK    2  A    between atoms: _3  and  _4
REMARK    3  A    between atoms: _3  and  _6
REMARK    4  A    between atoms: _6  and  _7
REMARK    5  A    between atoms: _10  and  _12
REMARK    6  A    between atoms: _12  and  _13
REMARK    7  A    between atoms: _15  and  _17
REMARK    8  A    between atoms: _17  and  _18
REMARK    9  A    between atoms: _17  and  _20
REMARK   10  A    between atoms: _20  and  _21
REMARK   11  A    between atoms: _23  and  _25
REMARK   12  A    between atoms: _25  and  _26
REMARK   13  A    between atoms: _25  and  _28
REMARK   14  A    between atoms: _28  and  _29
REMARK   15  A    between atoms: _32  and  _34
REMARK   16  A    between atoms: _34  and  _35
REMARK   17  A    between atoms: _34  and  _37
REMARK   18  A    between atoms: _37  and  _38
REMARK   19  A    between atoms: _43  and  _45
REMARK   20  A    between atoms: _45  and  _46
REMARK   21  A    between atoms: _49  and  _51
REMARK   22  A    between atoms: _51  and  _52
REMARK   23  A    between atoms: _51  and  _54
REMARK   24  A    between atoms: _54  and  _55
REMARK   25  A    between atoms: _58  and  _60
REMARK   26  A    between atoms: _60  and  _61
REMARK   27  A    between atoms: _60  and  _63
REMARK   28  A    between atoms: _63  and  _64
REMARK   29  A    between atoms: _67  and  _69
REMARK   30  A    between atoms: _69  and  _70
REMARK   31  A    between atoms: _69  and  _72
REMARK   32  A    between atoms: _72  and  _73
REMARK   33  A    between atoms: _76  and  _78
REMARK   34  A    between atoms: _78  and  _79
REMARK   35  A    between atoms: _82  and  _84
REMARK   36  A    between atoms: _84  and  _85
REMARK   37  A    between atoms: _84  and  _87
REMARK   38  A    between atoms: _87  and  _88
REMARK   39  A    between atoms: _88  and  _89
REMARK   40  A    between atoms: _94  and  _96
REMARK   41  A    between atoms: _96  and  _97
REMARK   42  A    between atoms: _96  and  _99
REMARK   43  A    between atoms: _99  and  _100
REMARK   44  A    between atoms: _103  and  _105
REMARK   45  A    between atoms: _105  and  _106
REMARK   46  A    between atoms: _109  and  _111
REMARK   47  A    between atoms: _111  and  _112
REMARK   48  A    between atoms: _114  and  _116
REMARK   49  A    between atoms: _116  and  _117
REMARK   50  A    between atoms: _116  and  _119
REMARK   51  A    between atoms: _119  and  _120
REMARK   52  A    between atoms: _120  and  _121
REMARK   53  A    between atoms: _121  and  _122
REMARK   54  A    between atoms: _131  and  _133
REMARK   55  A    between atoms: _133  and  _134
REMARK   56  A    between atoms: _136  and  _138
REMARK   57  A    between atoms: _138  and  _139
REMARK   58  A    between atoms: _138  and  _141
REMARK   59  A    between atoms: _141  and  _142
REMARK   60  A    between atoms: _142  and  _143
REMARK   61  A    between atoms: _143  and  _144
REMARK   62  A    between atoms: _153  and  _155
REMARK   63  A    between atoms: _155  and  _156
REMARK   64  A    between atoms: _155  and  _158
REMARK   65  A    between atoms: _158  and  _159
REMARK   66  A    between atoms: _164  and  _166
REMARK   67  A    between atoms: _166  and  _167
REMARK   68  A    between atoms: _169  and  _171
REMARK   69  A    between atoms: _171  and  _172
REMARK   70  A    between atoms: _171  and  _174
REMARK   71  A    between atoms: _174  and  _175
REMARK   72  A    between atoms: _175  and  _176
REMARK   73  A    between atoms: _176  and  _177
REMARK   74  A    between atoms: _186  and  _188
REMARK   75  A    between atoms: _188  and  _189
REMARK   76  A    between atoms: _191  and  _193
REMARK   77  A    between atoms: _193  and  _194
REMARK   78  A    between atoms: _193  and  _196
REMARK   79  A    between atoms: _196  and  _197
REMARK   80  A    between atoms: _207  and  _209
REMARK   81  A    between atoms: _209  and  _210
REMARK   82  A    between atoms: _213  and  _215
REMARK   83  A    between atoms: _215  and  _216
REMARK   84  A    between atoms: _219  and  _221
REMARK   85  A    between atoms: _221  and  _222
REMARK   86  A    between atoms: _221  and  _224
REMARK   87  A    between atoms: _224  and  _225
REMARK   88  A    between atoms: _228  and  _230
REMARK   89  A    between atoms: _230  and  _231
REMARK   90  A    between atoms: _234  and  _236
REMARK   91  A    between atoms: _236  and  _237
REMARK   92  A    between atoms: _236  and  _239
REMARK   93  A    between atoms: _239  and  _240
REMARK   94  A    between atoms: _240  and  _241
REMARK   95  A    between atoms: _246  and  _248
REMARK   96  A    between atoms: _248  and  _249
REMARK   97  A    between atoms: _248  and  _251
REMARK   98  A    between atoms: _251  and  _252
REMARK   99  A    between atoms: _255  and  _257
REMARK  100  A    between atoms: _257  and  _258
REMARK  101  A    between atoms: _257  and  _260
REMARK  102  A    between atoms: _260  and  _261
REMARK  103  A    between atoms: _264  and  _266
REMARK  104  A    between atoms: _266  and  _267
REMARK  105  A    between atoms: _266  and  _269
REMARK  106  A    between atoms: _269  and  _270
REMARK  107  A    between atoms: _273  and  _275
REMARK  108  A    between atoms: _275  and  _276
REMARK  109  A    between atoms: _275  and  _278
REMARK  110  A    between atoms: _278  and  _279
REMARK  111  A    between atoms: _281  and  _283
REMARK  112  A    between atoms: _283  and  _284
REMARK  113  A    between atoms: _283  and  _286
REMARK  114  A    between atoms: _289  and  _291
REMARK  115  A    between atoms: _291  and  _292
REMARK  116  A    between atoms: _291  and  _294
REMARK  117  A    between atoms: _294  and  _295
REMARK  118  A    between atoms: _295  and  _296
REMARK  119  A    between atoms: _296  and  _297
REMARK  120  A    between atoms: _297  and  _298
REMARK  121  A    between atoms: _303  and  _304
REMARK  122  A    between atoms: _309  and  _311
REMARK  123  A    between atoms: _311  and  _312
REMARK  124  A    between atoms: _311  and  _314
REMARK  125  A    between atoms: _314  and  _315
REMARK  126  A    between atoms: _320  and  _322
REMARK  127  A    between atoms: _322  and  _323
REMARK  128  A    between atoms: _322  and  _325
REMARK  129  A    between atoms: _325  and  _326
REMARK  130  A    between atoms: _329  and  _331
REMARK  131  A    between atoms: _331  and  _332
REMARK  132  A    between atoms: _331  and  _334
REMARK  133  A    between atoms: _337  and  _339
REMARK  134  A    between atoms: _339  and  _340
REMARK  135  A    between atoms: _342  and  _344
REMARK  136  A    between atoms: _344  and  _345
REMARK  137  A    between atoms: _344  and  _347
REMARK  138  A    between atoms: _347  and  _348
REMARK  139  A    between atoms: _348  and  _349
REMARK  140  A    between atoms: _349  and  _350
REMARK  141  A    between atoms: _350  and  _351
REMARK  142  A    between atoms: _355  and  _357
REMARK  143  A    between atoms: _357  and  _358
REMARK  144  A    between atoms: _357  and  _360
REMARK  145  A    between atoms: _360  and  _361
REMARK  146  A    between atoms: _364  and  _366
REMARK  147  A    between atoms: _366  and  _367
REMARK  148  A    between atoms: _370  and  _372
REMARK  149  A    between atoms: _372  and  _373
REMARK  150  A    between atoms: _375  and  _377
REMARK  151  A    between atoms: _377  and  _378
REMARK  152  A    between atoms: _377  and  _380
REMARK  153  A    between atoms: _380  and  _381
REMARK  154  A    between atoms: _384  and  _386
REMARK  155  A    between atoms: _386  and  _387
REMARK  156  A    between atoms: _386  and  _389
REMARK  157  A    between atoms: _389  and  _390
REMARK  158  A    between atoms: _393  and  _395
REMARK  159  A    between atoms: _395  and  _396
REMARK  160  A    between atoms: _399  and  _401
REMARK  161  A    between atoms: _401  and  _402
REMARK  162  A    between atoms: _401  and  _404
REMARK  163  A    between atoms: _404  and  _405
REMARK  164  A    between atoms: _405  and  _406
REMARK  165  A    between atoms: _409  and  _411
REMARK  166  A    between atoms: _411  and  _412
REMARK  167  A    between atoms: _411  and  _414
REMARK  168  A    between atoms: _417  and  _419
REMARK  169  A    between atoms: _419  and  _420
REMARK  170  A    between atoms: _419  and  _422
REMARK  171  A    between atoms: _422  and  _423
REMARK  172  A    between atoms: _426  and  _428
REMARK  173  A    between atoms: _428  and  _429
REMARK  174  A    between atoms: _431  and  _433
REMARK  175  A    between atoms: _433  and  _434
REMARK  176  A    between atoms: _433  and  _436
REMARK  177  A    between atoms: _439  and  _441
REMARK  178  A    between atoms: _441  and  _442
REMARK  179  A    between atoms: _444  and  _446
REMARK  180  A    between atoms: _446  and  _447
REMARK  181  A    between atoms: _446  and  _449
REMARK  182  A    between atoms: _449  and  _450
REMARK  183  A    between atoms: _453  and  _455
REMARK  184  A    between atoms: _455  and  _456
REMARK  185  A    between atoms: _455  and  _458
REMARK  186  A    between atoms: _458  and  _459
REMARK  187  A    between atoms: _464  and  _466
REMARK  188  A    between atoms: _466  and  _467
REMARK  189  A    between atoms: _466  and  _469
REMARK  190  A    between atoms: _472  and  _474
REMARK  191  A    between atoms: _474  and  _475
REMARK  192  A    between atoms: _474  and  _477
REMARK  193  A    between atoms: _477  and  _478
REMARK  194  A    between atoms: _478  and  _479
REMARK  195  A    between atoms: _484  and  _486
REMARK  196  A    between atoms: _486  and  _487
REMARK  197  A    between atoms: _491  and  _492
REMARK  198  A    between atoms: _497  and  _499
REMARK  199  A    between atoms: _499  and  _500
REMARK  200  A    between atoms: _499  and  _502
REMARK  201  A    between atoms: _502  and  _503
REMARK  202  A    between atoms: _503  and  _504
REMARK  203  A    between atoms: _507  and  _509
REMARK  204  A    between atoms: _509  and  _510
REMARK  205  A    between atoms: _509  and  _512
REMARK  206  A    between atoms: _515  and  _517
REMARK  207  A    between atoms: _517  and  _518
REMARK  208  A    between atoms: _517  and  _520
REMARK  209  A    between atoms: _520  and  _521
REMARK  210  A    between atoms: _525  and  _526
REMARK  211  A    between atoms: _531  and  _533
REMARK  212  A    between atoms: _533  and  _534
REMARK  213  A    between atoms: _533  and  _536
REMARK  214  A    between atoms: _536  and  _537
REMARK  215  A    between atoms: _540  and  _542
REMARK  216  A    between atoms: _542  and  _543
REMARK  217  A    between atoms: _546  and  _548
REMARK  218  A    between atoms: _548  and  _549
REMARK  219  A    between atoms: _548  and  _551
REMARK  220  A    between atoms: _551  and  _552
REMARK  221  A    between atoms: _555  and  _557
REMARK  222  A    between atoms: _557  and  _558
REMARK  223  A    between atoms: _557  and  _560
REMARK  224  A    between atoms: _560  and  _561
REMARK  225  A    between atoms: _563  and  _565
REMARK  226  A    between atoms: _565  and  _566
REMARK  227  A    between atoms: _568  and  _570
REMARK  228  A    between atoms: _570  and  _571
REMARK  229  A    between atoms: _570  and  _573
REMARK  230  A    between atoms: _573  and  _574
REMARK  231  A    between atoms: _577  and  _579
REMARK  232  A    between atoms: _579  and  _580
REMARK  233  A    between atoms: _579  and  _582
REMARK                            x       y       z     vdW  Elec       q    Type
REMARK                         _______ _______ _______ _____ _____    ______ ____
ROOT
ATOM      1  C   ARG A   7       0.280  -6.757   4.608  0.00  0.00    +0.241 C 
ATOM      2  O   ARG A   7       0.370  -5.544   4.806  0.00  0.00    -0.273 OA
ATOM      3  N   HIS A   8       1.004  -7.409   3.700  0.00  0.00    -0.297 N 
ATOM      4  H   HIS A   8       0.938  -8.446   3.663  0.00  0.00    +0.150 HD
ENDROOT
BRANCH   3   5
ATOM      5  CA  HIS A   8       1.887  -6.730   2.753  0.00  0.00    +0.155 C 
BRANCH   5   6
ATOM      6  C   HIS A   8       2.957  -5.886   3.443  0.00  0.00    +0.241 C 
ATOM      7  N   GLY A   9       3.445  -6.367   4.583  0.00  0.00    -0.295 N 
ATOM      8  H   GLY A   9       3.059  -7.254   4.964  0.00  0.00    +0.150 HD
ATOM      9  O   HIS A   8       3.329  -4.820   2.953  0.00  0.00    -0.273 OA
BRANCH   7  10
ATOM     10  CA  GLY A   9       4.501  -5.687   5.309  0.00  0.00    +0.176 C 
BRANCH  10  11
ATOM     11  C   GLY A   9       4.061  -4.408   5.997  0.00  0.00    +0.243 C 
ATOM     12  O   GLY A   9       4.886  -3.551   6.311  0.00  0.00    -0.273 OA
ATOM     13  N   ARG A  10       2.759  -4.273   6.232  0.00  0.00    -0.297 N 
ATOM     14  H   ARG A  10       2.103  -5.015   5.914  0.00  0.00    +0.150 HD
BRANCH  13  15
ATOM     15  CA  ARG A  10       2.235  -3.104   6.928  0.00  0.00    +0.149 C 
BRANCH  15  16
ATOM     16  C   ARG A  10       2.119  -3.370   8.424  0.00  0.00    +0.241 C 
ATOM     17  N   GLY A  11       1.641  -2.378   9.168  0.00  0.00    -0.295 N 
ATOM     18  H   GLY A  11       1.325  -1.502   8.706  0.00  0.00    +0.150 HD
ATOM     19  O   ARG A  10       2.460  -4.454   8.896  0.00  0.00    -0.273 OA
BRANCH  17  20
ATOM     20  CA  GLY A  11       1.551  -2.492  10.612  0.00  0.00    +0.176 C 
BRANCH  20  21
ATOM     21  C   GLY A  11       0.129  -2.551  11.137  0.00  0.00    +0.243 C 
ATOM     22  N   TRP A  12      -0.003  -2.865  12.422  0.00  0.00    -0.297 N 
ATOM     23  H   TRP A  12       0.847  -3.099  12.973  0.00  0.00    +0.150 HD
ATOM     24  O   GLY A  11      -0.831  -2.323  10.399  0.00  0.00    -0.273 OA
BRANCH  22  25
ATOM     25  CA  TRP A  12      -1.301  -2.891  13.082  0.00  0.00    +0.153 C 
BRANCH  25  26
ATOM     26  C   TRP A  12      -1.202  -2.187  14.428  0.00  0.00    +0.241 C 
ATOM     27  O   TRP A  12      -0.476  -2.629  15.317  0.00  0.00    -0.273 OA
ATOM     28  N   ALA A  13      -1.929  -1.084  14.571  0.00  0.00    -0.297 N 
ATOM     29  H   ALA A  13      -2.569  -0.794  13.805  0.00  0.00    +0.150 HD
BRANCH  28  30
ATOM     30  CA  ALA A  13      -1.848  -0.273  15.778  0.00  0.00    +0.149 C 
ATOM     31  CB  ALA A  13      -2.023   1.198  15.437  0.00  0.00    +0.031 C 
BRANCH  30  32
ATOM     32  C   ALA A  13      -2.881  -0.705  16.812  0.00  0.00    +0.241 C 
ATOM     33  N   ALA A  14      -2.535  -0.540  18.085  0.00  0.00    -0.297 N 
ATOM     34  H   ALA A  14      -1.610  -0.119  18.306  0.00  0.00    +0.150 HD
ATOM     35  O   ALA A  13      -3.965  -1.174  16.463  0.00  0.00    -0.273 OA
BRANCH  33  36
ATOM     36  CA  ALA A  14      -3.414  -0.932  19.180  0.00  0.00    +0.149 C 
ATOM     37  CB  ALA A  14      -3.427  -2.446  19.332  0.00  0.00    +0.031 C 
BRANCH  36  38
ATOM     38  C   ALA A  14      -2.994  -0.278  20.490  0.00  0.00    +0.241 C 
ATOM     39  N   THR A  15      -3.976   0.099  21.302  0.00  0.00    -0.296 N 
ATOM     40  H   THR A  15      -4.959   0.058  20.966  0.00  0.00    +0.150 HD
ATOM     41  O   ALA A  14      -1.803  -0.113  20.757  0.00  0.00    -0.273 OA
BRANCH  39  42
ATOM     42  CA  THR A  15      -3.702   0.569  22.654  0.00  0.00    +0.164 C 
BRANCH  42  43
ATOM     43  C   THR A  15      -4.151  -0.498  23.646  0.00  0.00    +0.229 C 
ATOM     44  O   THR A  15      -5.006  -1.325  23.328  0.00  0.00    -0.286 OA
ENDBRANCH  42  43
BRANCH  42  45
ATOM     45  CB  THR A  15      -4.402   1.909  22.959  0.00  0.00    +0.136 C 
ATOM     46  CG2 THR A  15      -4.027   2.952  21.917  0.00  0.00    +0.034 C 
BRANCH  45  47
ATOM     47  OG1 THR A  15      -5.822   1.726  22.964  0.00  0.00    -0.382 OA
ATOM     48  HG1 THR A  15      -6.264   2.590  23.160  0.00  0.00    +0.210 HD
ENDBRANCH  45  47
ENDBRANCH  42  45
ENDBRANCH  39  42
ENDBRANCH  36  38
ENDBRANCH  33  36
ENDBRANCH  30  32
ENDBRANCH  28  30
ENDBRANCH  25  26
BRANCH  25  49
ATOM     49  CB  TRP A  12      -1.794  -4.329  13.262  0.00  0.00    +0.057 C 
BRANCH  49  50
ATOM     50  CG  TRP A  12      -3.174  -4.423  13.846  0.00  0.00    -0.002 A 
ATOM     51  CD1 TRP A  12      -3.499  -4.692  15.144  0.00  0.00    +0.068 A 
ATOM     52  NE1 TRP A  12      -4.864  -4.694  15.300  0.00  0.00    -0.352 N 
ATOM     53  HE1 TRP A  12      -5.371  -4.872  16.191  0.00  0.00    +0.166 HD
ATOM     54  CE2 TRP A  12      -5.449  -4.423  14.092  0.00  0.00    +0.056 A 
ATOM     55  CZ2 TRP A  12      -6.796  -4.319  13.747  0.00  0.00    +0.017 A 
ATOM     56  CH2 TRP A  12      -7.094  -4.033  12.443  0.00  0.00    +0.001 A 
ATOM     57  CZ3 TRP A  12      -6.088  -3.850  11.486  0.00  0.00    +0.000 A 
ATOM     58  CE3 TRP A  12      -4.750  -3.952  11.826  0.00  0.00    +0.001 A 
ATOM     59  CD2 TRP A  12      -4.415  -4.244  13.151  0.00  0.00    +0.013 A 
ENDBRANCH  49  50
ENDBRANCH  25  49
ENDBRANCH  22  25
ENDBRANCH  20  21
ENDBRANCH  17  20
ENDBRANCH  15  16
BRANCH  15  60
ATOM     60  CB  ARG A  10       0.878  -2.693   6.352  0.00  0.00    +0.033 C 
BRANCH  60  61
ATOM     61  CG  ARG A  10       0.960  -2.079   4.960  0.00  0.00    +0.045 C 
BRANCH  61  62
ATOM     62  CD  ARG A  10      -0.346  -1.402   4.575  0.00  0.00    +0.174 C 
BRANCH  62  63
ATOM     63  NE  ARG A  10      -1.423  -2.363   4.361  0.00  0.00    -0.265 N 
ATOM     64  HE  ARG A  10      -1.853  -2.806   5.198  0.00  0.00    +0.259 HD
ATOM     65  CZ  ARG A  10      -1.889  -2.708   3.166  0.00  0.00    +0.342 C 
ATOM     66  NH2 ARG A  10      -2.873  -3.591   3.065  0.00  0.00    -0.292 N 
ATOM     67 HH21 ARG A  10      -3.281  -4.015   3.922  0.00  0.00    +0.255 HD
ATOM     68 HH22 ARG A  10      -3.236  -3.860   2.128  0.00  0.00    +0.255 HD
ATOM     69  NH1 ARG A  10      -1.376  -2.165   2.070  0.00  0.00    -0.292 N 
ATOM     70 HH11 ARG A  10      -0.608  -1.468   2.146  0.00  0.00    +0.255 HD
ATOM     71 HH12 ARG A  10      -1.742  -2.436   1.135  0.00  0.00    +0.255 HD
ENDBRANCH  62  63
ENDBRANCH  61  62
ENDBRANCH  60  61
ENDBRANCH  15  60
ENDBRANCH  13  15
ENDBRANCH  10  11
ENDBRANCH   7  10
ENDBRANCH   5   6
BRANCH   5  72
ATOM     72  CB  HIS A   8       1.065  -5.851   1.805  0.00  0.00    +0.076 C 
BRANCH  72  73
ATOM     73  CG  HIS A   8      -0.206  -6.490   1.343  0.00  0.00    +0.082 A 
ATOM     74  ND1 HIS A   8      -1.431  -5.863   1.434  0.00  0.00    -0.227 NA
ATOM     75  CE1 HIS A   8      -2.369  -6.660   0.956  0.00  0.00    +0.199 A 
ATOM     76  NE2 HIS A   8      -1.798  -7.783   0.556  0.00  0.00    -0.221 NA
ATOM     77  CD2 HIS A   8      -0.447  -7.702   0.788  0.00  0.00    +0.115 A 
ENDBRANCH  72  73
ENDBRANCH   5  72
ENDBRANCH   3   5
BRANCH   1  78
ATOM     78  CA  ARG A   7      -0.683  -7.606   5.430  0.00  0.00    +0.149 C 
BRANCH  78  81
ATOM     79  C   GLY A   6      -0.137  -6.949   7.696  0.00  0.00    +0.243 C 
ATOM     80  O   GLY A   6       0.927  -7.566   7.658  0.00  0.00    -0.273 OA
ATOM     81  N   ARG A   7      -0.998  -6.939   6.686  0.00  0.00    -0.297 N 
ATOM     82  H   ARG A   7      -1.909  -6.449   6.793  0.00  0.00    +0.150 HD
BRANCH  79  83
ATOM     83  CA  GLY A   6      -0.520  -6.159   8.931  0.00  0.00    +0.176 C 
BRANCH  83  86
ATOM     84  C   ARG A   5       0.521  -6.733  11.050  0.00  0.00    +0.241 C 
ATOM     85  O   ARG A   5      -0.527  -7.176  11.520  0.00  0.00    -0.273 OA
ATOM     86  N   GLY A   6       0.596  -6.157   9.856  0.00  0.00    -0.295 N 
ATOM     87  H   GLY A   6       1.482  -5.690   9.576  0.00  0.00    +0.150 HD
BRANCH  84  88
ATOM     88  CA  ARG A   5       1.830  -6.828  11.824  0.00  0.00    +0.149 C 
BRANCH  88  91
ATOM     89  C   GLY A   4       1.933  -5.531  13.884  0.00  0.00    +0.243 C 
ATOM     90  O   GLY A   4       2.366  -4.537  13.302  0.00  0.00    -0.273 OA
ATOM     91  N   ARG A   5       1.636  -6.666  13.260  0.00  0.00    -0.297 N 
ATOM     92  H   ARG A   5       1.254  -7.461  13.811  0.00  0.00    +0.150 HD
BRANCH  89  93
ATOM     93  CA  GLY A   4       1.702  -5.518  15.383  0.00  0.00    +0.176 C 
BRANCH  93  95
ATOM     94  C   ALA A   3       3.978  -5.013  16.091  0.00  0.00    +0.241 C 
ATOM     95  N   GLY A   4       2.676  -4.746  16.133  0.00  0.00    -0.295 N 
ATOM     96  H   GLY A   4       2.344  -3.957  16.724  0.00  0.00    +0.150 HD
ATOM     97  O   ALA A   3       4.463  -5.884  15.367  0.00  0.00    -0.273 OA
BRANCH  94  98
ATOM     98  CA  ALA A   3       4.869  -4.170  16.999  0.00  0.00    +0.149 C 
ATOM     99  CB  ALA A   3       6.283  -4.734  17.027  0.00  0.00    +0.031 C 
BRANCH  98 102
ATOM    100  C   THR A   2       4.226  -2.927  18.985  0.00  0.00    +0.243 C 
ATOM    101  O   THR A   2       4.592  -1.867  18.478  0.00  0.00    -0.273 OA
ATOM    102  N   ALA A   3       4.326  -4.092  18.354  0.00  0.00    -0.297 N 
ATOM    103  H   ALA A   3       4.013  -4.961  18.831  0.00  0.00    +0.150 HD
BRANCH 100 104
ATOM    104  CA  THR A   2       3.631  -2.944  20.395  0.00  0.00    +0.176 C 
BRANCH 104 106
ATOM    105  C   GLN A   1       1.479  -4.076  20.544  0.00  0.00    +0.238 C 
ATOM    106  N   THR A   2       2.802  -4.113  20.680  0.00  0.00    -0.295 N 
ATOM    107  H   THR A   2       3.256  -4.994  20.996  0.00  0.00    +0.150 HD
ATOM    108  O   GLN A   1       0.888  -3.136  20.011  0.00  0.00    -0.274 OA
BRANCH 105 109
ATOM    109  CA  GLN A   1       0.703  -5.273  21.085  0.00  0.00    +0.145 C 
BRANCH 109 110
ATOM    110  N   GLN A   1      -0.201  -4.842  22.144  0.00  0.00    -0.238 NA
ATOM    111  H   GLN A   1      -0.812  -4.017  21.980  0.00  0.00    +0.142 HD
ENDBRANCH 109 110
BRANCH 109 112
ATOM    112  CB  GLN A   1      -0.081  -5.960  19.968  0.00  0.00    +0.036 C 
BRANCH 112 113
ATOM    113  CG  GLN A   1       0.718  -6.969  19.171  0.00  0.00    +0.087 C 
BRANCH 113 114
ATOM    114  CD  GLN A   1      -0.137  -7.722  18.173  0.00  0.00    +0.219 C 
ATOM    115  OE1 GLN A   1      -0.006  -8.935  18.018  0.00  0.00    -0.275 OA
ATOM    116  NE2 GLN A   1      -1.020  -7.003  17.488  0.00  0.00    -0.329 N 
ATOM    117 HE21 GLN A   1      -1.096  -5.979  17.652  0.00  0.00    +0.145 HD
ATOM    118 HE22 GLN A   1      -1.635  -7.464  16.788  0.00  0.00    +0.145 HD
ENDBRANCH 113 114
ENDBRANCH 112 113
ENDBRANCH 109 112
ENDBRANCH 105 109
ENDBRANCH 104 106
BRANCH 104 119
ATOM    119  CB  THR A   2       4.784  -2.827  21.415  0.00  0.00    +0.137 C 
ATOM    120  CG2 THR A   2       4.230  -2.642  22.819  0.00  0.00    +0.034 C 
BRANCH 119 121
ATOM    121  OG1 THR A   2       5.587  -4.013  21.377  0.00  0.00    -0.382 OA
ATOM    122  HG1 THR A   2       6.324  -3.932  22.033  0.00  0.00    +0.210 HD
ENDBRANCH 119 121
ENDBRANCH 104 119
ENDBRANCH 100 104
ENDBRANCH  98 102
ENDBRANCH  94  98
ENDBRANCH  93  95
ENDBRANCH  89  93
ENDBRANCH  88  91
BRANCH  88 123
ATOM    123  CB  ARG A   5       2.491  -8.173  11.520  0.00  0.00    +0.033 C 
BRANCH 123 124
ATOM    124  CG  ARG A   5       3.848  -8.382  12.161  0.00  0.00    +0.045 C 
BRANCH 124 125
ATOM    125  CD  ARG A   5       4.386  -9.751  11.786  0.00  0.00    +0.174 C 
BRANCH 125 126
ATOM    126  NE  ARG A   5       5.677 -10.038  12.400  0.00  0.00    -0.265 N 
ATOM    127  HE  ARG A   5       6.106  -9.308  13.004  0.00  0.00    +0.259 HD
ATOM    128  CZ  ARG A   5       6.337 -11.178  12.232  0.00  0.00    +0.342 C 
ATOM    129  NH2 ARG A   5       7.509 -11.366  12.823  0.00  0.00    -0.292 N 
ATOM    130 HH21 ARG A   5       7.915 -10.619  13.421  0.00  0.00    +0.255 HD
ATOM    131 HH22 ARG A   5       8.022 -12.261  12.688  0.00  0.00    +0.255 HD
ATOM    132  NH1 ARG A   5       5.823 -12.133  11.469  0.00  0.00    -0.292 N 
ATOM    133 HH11 ARG A   5       6.338 -13.026  11.336  0.00  0.00    +0.255 HD
ATOM    134 HH12 ARG A   5       4.904 -11.989  11.003  0.00  0.00    +0.255 HD
ENDBRANCH 125 126
ENDBRANCH 124 125
ENDBRANCH 123 124
ENDBRANCH  88 123
ENDBRANCH  84  88
ENDBRANCH  83  86
ENDBRANCH  79  83
ENDBRANCH  78  81
BRANCH  78 135
ATOM    135  CB  ARG A   7      -1.956  -7.891   4.628  0.00  0.00    +0.033 C 
BRANCH 135 136
ATOM    136  CG  ARG A   7      -2.925  -8.836   5.318  0.00  0.00    +0.045 C 
BRANCH 136 137
ATOM    137  CD  ARG A   7      -4.004  -9.328   4.363  0.00  0.00    +0.174 C 
BRANCH 137 138
ATOM    138  NE  ARG A   7      -4.944  -8.277   3.983  0.00  0.00    -0.265 N 
ATOM    139  CZ  ARG A   7      -6.059  -7.995   4.651  0.00  0.00    +0.342 C 
ATOM    140  NH2 ARG A   7      -6.374  -8.681   5.742  0.00  0.00    -0.292 N 
ATOM    141 HH21 ARG A   7      -7.246  -8.458   6.262  0.00  0.00    +0.255 HD
ATOM    142 HH22 ARG A   7      -5.748  -9.441   6.077  0.00  0.00    +0.255 HD
ATOM    143  NH1 ARG A   7      -6.859  -7.023   4.233  0.00  0.00    -0.292 N 
ATOM    144 HH11 ARG A   7      -7.730  -6.805   4.757  0.00  0.00    +0.255 HD
ATOM    145 HH12 ARG A   7      -6.615  -6.479   3.381  0.00  0.00    +0.255 HD
ATOM    146  HE  ARG A   7      -4.728  -7.713   3.136  0.00  0.00    +0.259 HD
ENDBRANCH 137 138
ENDBRANCH 136 137
ENDBRANCH 135 136
ENDBRANCH  78 135
ENDBRANCH   1  78
TORSDOF 53
REMARK  Name = ../refined-set-2016/4xtx/4xtx_pocket.pdb
REMARK  233 active torsions:
REMARK  status: ('A' for Active; 'I' for Inactive)
REMARK    1  A    between atoms: _1  and  _3
REMARK    2  A    between atoms: _3  and  _4
REMARK    3  A    between atoms: _3  and  _6
REMARK    4  A    between atoms: _6  and  _7
REMARK    5  A    between atoms: _10  and  _12
REMARK    6  A    between atoms: _12  and  _13
REMARK    7  A    between atoms: _15  and  _17
REMARK    8  A    between atoms: _17  and  _18
REMARK    9  A    between atoms: _17  and  _20
REMARK   10  A    between atoms: _20  and  _21
REMARK   11  A    between atoms: _23  and  _25
REMARK   12  A    between atoms: _25  and  _26
REMARK   13  A    between atoms: _25  and  _28
REMARK   14  A    between atoms: _28  and  _29
REMARK   15  A    between atoms: _32  and  _34
REMARK   16  A    between atoms: _34  and  _35
REMARK   17  A    between atoms: _34  and  _37
REMARK   18  A    between atoms: _37  and  _38
REMARK   19  A    between atoms: _43  and  _45
REMARK   20  A    between atoms: _45  and  _46
REMARK   21  A    between atoms: _49  and  _51
REMARK   22  A    between atoms: _51  and  _52
REMARK   23  A    between atoms: _51  and  _54
REMARK   24  A    between atoms: _54  and  _55
REMARK   25  A    between atoms: _58  and  _60
REMARK   26  A    between atoms: _60  and  _61
REMARK   27  A    between atoms: _60  and  _63
REMARK   28  A    between atoms: _63  and  _64
REMARK   29  A    between atoms: _67  and  _69
REMARK   30  A    between atoms: _69  and  _70
REMARK   31  A    between atoms: _69  and  _72
REMARK   32  A    between atoms: _72  and  _73
REMARK   33  A    between atoms: _76  and  _78
REMARK   34  A    between atoms: _78  and  _79
REMARK   35  A    between atoms: _82  and  _84
REMARK   36  A    between atoms: _84  and  _85
REMARK   37  A    between atoms: _84  and  _87
REMARK   38  A    between atoms: _87  and  _88
REMARK   39  A    between atoms: _88  and  _89
REMARK   40  A    between atoms: _94  and  _96
REMARK   41  A    between atoms: _96  and  _97
REMARK   42  A    between atoms: _96  and  _99
REMARK   43  A    between atoms: _99  and  _100
REMARK   44  A    between atoms: _103  and  _105
REMARK   45  A    between atoms: _105  and  _106
REMARK   46  A    between atoms: _109  and  _111
REMARK   47  A    between atoms: _111  and  _112
REMARK   48  A    between atoms: _114  and  _116
REMARK   49  A    between atoms: _116  and  _117
REMARK   50  A    between atoms: _116  and  _119
REMARK   51  A    between atoms: _119  and  _120
REMARK   52  A    between atoms: _120  and  _121
REMARK   53  A    between atoms: _121  and  _122
REMARK   54  A    between atoms: _131  and  _133
REMARK   55  A    between atoms: _133  and  _134
REMARK   56  A    between atoms: _136  and  _138
REMARK   57  A    between atoms: _138  and  _139
REMARK   58  A    between atoms: _138  and  _141
REMARK   59  A    between atoms: _141  and  _142
REMARK   60  A    between atoms: _142  and  _143
REMARK   61  A    between atoms: _143  and  _144
REMARK   62  A    between atoms: _153  and  _155
REMARK   63  A    between atoms: _155  and  _156
REMARK   64  A    between atoms: _155  and  _158
REMARK   65  A    between atoms: _158  and  _159
REMARK   66  A    between atoms: _164  and  _166
REMARK   67  A    between atoms: _166  and  _167
REMARK   68  A    between atoms: _169  and  _171
REMARK   69  A    between atoms: _171  and  _172
REMARK   70  A    between atoms: _171  and  _174
REMARK   71  A    between atoms: _174  and  _175
REMARK   72  A    between atoms: _175  and  _176
REMARK   73  A    between atoms: _176  and  _177
REMARK   74  A    between atoms: _186  and  _188
REMARK   75  A    between atoms: _188  and  _189
REMARK   76  A    between atoms: _191  and  _193
REMARK   77  A    between atoms: _193  and  _194
REMARK   78  A    between atoms: _193  and  _196
REMARK   79  A    between atoms: _196  and  _197
REMARK   80  A    between atoms: _207  and  _209
REMARK   81  A    between atoms: _209  and  _210
REMARK   82  A    between atoms: _213  and  _215
REMARK   83  A    between atoms: _215  and  _216
REMARK   84  A    between atoms: _219  and  _221
REMARK   85  A    between atoms: _221  and  _222
REMARK   86  A    between atoms: _221  and  _224
REMARK   87  A    between atoms: _224  and  _225
REMARK   88  A    between atoms: _228  and  _230
REMARK   89  A    between atoms: _230  and  _231
REMARK   90  A    between atoms: _234  and  _236
REMARK   91  A    between atoms: _236  and  _237
REMARK   92  A    between atoms: _236  and  _239
REMARK   93  A    between atoms: _239  and  _240
REMARK   94  A    between atoms: _240  and  _241
REMARK   95  A    between atoms: _246  and  _248
REMARK   96  A    between atoms: _248  and  _249
REMARK   97  A    between atoms: _248  and  _251
REMARK   98  A    between atoms: _251  and  _252
REMARK   99  A    between atoms: _255  and  _257
REMARK  100  A    between atoms: _257  and  _258
REMARK  101  A    between atoms: _257  and  _260
REMARK  102  A    between atoms: _260  and  _261
REMARK  103  A    between atoms: _264  and  _266
REMARK  104  A    between atoms: _266  and  _267
REMARK  105  A    between atoms: _266  and  _269
REMARK  106  A    between atoms: _269  and  _270
REMARK  107  A    between atoms: _273  and  _275
REMARK  108  A    between atoms: _275  and  _276
REMARK  109  A    between atoms: _275  and  _278
REMARK  110  A    between atoms: _278  and  _279
REMARK  111  A    between atoms: _281  and  _283
REMARK  112  A    between atoms: _283  and  _284
REMARK  113  A    between atoms: _283  and  _286
REMARK  114  A    between atoms: _289  and  _291
REMARK  115  A    between atoms: _291  and  _292
REMARK  116  A    between atoms: _291  and  _294
REMARK  117  A    between atoms: _294  and  _295
REMARK  118  A    between atoms: _295  and  _296
REMARK  119  A    between atoms: _296  and  _297
REMARK  120  A    between atoms: _297  and  _298
REMARK  121  A    between atoms: _303  and  _304
REMARK  122  A    between atoms: _309  and  _311
REMARK  123  A    between atoms: _311  and  _312
REMARK  124  A    between atoms: _311  and  _314
REMARK  125  A    between atoms: _314  and  _315
REMARK  126  A    between atoms: _320  and  _322
REMARK  127  A    between atoms: _322  and  _323
REMARK  128  A    between atoms: _322  and  _325
REMARK  129  A    between atoms: _325  and  _326
REMARK  130  A    between atoms: _329  and  _331
REMARK  131  A    between atoms: _331  and  _332
REMARK  132  A    between atoms: _331  and  _334
REMARK  133  A    between atoms: _337  and  _339
REMARK  134  A    between atoms: _339  and  _340
REMARK  135  A    between atoms: _342  and  _344
REMARK  136  A    between atoms: _344  and  _345
REMARK  137  A    between atoms: _344  and  _347
REMARK  138  A    between atoms: _347  and  _348
REMARK  139  A    between atoms: _348  and  _349
REMARK  140  A    between atoms: _349  and  _350
REMARK  141  A    between atoms: _350  and  _351
REMARK  142  A    between atoms: _355  and  _357
REMARK  143  A    between atoms: _357  and  _358
REMARK  144  A    between atoms: _357  and  _360
REMARK  145  A    between atoms: _360  and  _361
REMARK  146  A    between atoms: _364  and  _366
REMARK  147  A    between atoms: _366  and  _367
REMARK  148  A    between atoms: _370  and  _372
REMARK  149  A    between atoms: _372  and  _373
REMARK  150  A    between atoms: _375  and  _377
REMARK  151  A    between atoms: _377  and  _378
REMARK  152  A    between atoms: _377  and  _380
REMARK  153  A    between atoms: _380  and  _381
REMARK  154  A    between atoms: _384  and  _386
REMARK  155  A    between atoms: _386  and  _387
REMARK  156  A    between atoms: _386  and  _389
REMARK  157  A    between atoms: _389  and  _390
REMARK  158  A    between atoms: _393  and  _395
REMARK  159  A    between atoms: _395  and  _396
REMARK  160  A    between atoms: _399  and  _401
REMARK  161  A    between atoms: _401  and  _402
REMARK  162  A    between atoms: _401  and  _404
REMARK  163  A    between atoms: _404  and  _405
REMARK  164  A    between atoms: _405  and  _406
REMARK  165  A    between atoms: _409  and  _411
REMARK  166  A    between atoms: _411  and  _412
REMARK  167  A    between atoms: _411  and  _414
REMARK  168  A    between atoms: _417  and  _419
REMARK  169  A    between atoms: _419  and  _420
REMARK  170  A    between atoms: _419  and  _422
REMARK  171  A    between atoms: _422  and  _423
REMARK  172  A    between atoms: _426  and  _428
REMARK  173  A    between atoms: _428  and  _429
REMARK  174  A    between atoms: _431  and  _433
REMARK  175  A    between atoms: _433  and  _434
REMARK  176  A    between atoms: _433  and  _436
REMARK  177  A    between atoms: _439  and  _441
REMARK  178  A    between atoms: _441  and  _442
REMARK  179  A    between atoms: _444  and  _446
REMARK  180  A    between atoms: _446  and  _447
REMARK  181  A    between atoms: _446  and  _449
REMARK  182  A    between atoms: _449  and  _450
REMARK  183  A    between atoms: _453  and  _455
REMARK  184  A    between atoms: _455  and  _456
REMARK  185  A    between atoms: _455  and  _458
REMARK  186  A    between atoms: _458  and  _459
REMARK  187  A    between atoms: _464  and  _466
REMARK  188  A    between atoms: _466  and  _467
REMARK  189  A    between atoms: _466  and  _469
REMARK  190  A    between atoms: _472  and  _474
REMARK  191  A    between atoms: _474  and  _475
REMARK  192  A    between atoms: _474  and  _477
REMARK  193  A    between atoms: _477  and  _478
REMARK  194  A    between atoms: _478  and  _479
REMARK  195  A    between atoms: _484  and  _486
REMARK  196  A    between atoms: _486  and  _487
REMARK  197  A    between atoms: _491  and  _492
REMARK  198  A    between atoms: _497  and  _499
REMARK  199  A    between atoms: _499  and  _500
REMARK  200  A    between atoms: _499  and  _502
REMARK  201  A    between atoms: _502  and  _503
REMARK  202  A    between atoms: _503  and  _504
REMARK  203  A    between atoms: _507  and  _509
REMARK  204  A    between atoms: _509  and  _510
REMARK  205  A    between atoms: _509  and  _512
REMARK  206  A    between atoms: _515  and  _517
REMARK  207  A    between atoms: _517  and  _518
REMARK  208  A    between atoms: _517  and  _520
REMARK  209  A    between atoms: _520  and  _521
REMARK  210  A    between atoms: _525  and  _526
REMARK  211  A    between atoms: _531  and  _533
REMARK  212  A    between atoms: _533  and  _534
REMARK  213  A    between atoms: _533  and  _536
REMARK  214  A    between atoms: _536  and  _537
REMARK  215  A    between atoms: _540  and  _542
REMARK  216  A    between atoms: _542  and  _543
REMARK  217  A    between atoms: _546  and  _548
REMARK  218  A    between atoms: _548  and  _549
REMARK  219  A    between atoms: _548  and  _551
REMARK  220  A    between atoms: _551  and  _552
REMARK  221  A    between atoms: _555  and  _557
REMARK  222  A    between atoms: _557  and  _558
REMARK  223  A    between atoms: _557  and  _560
REMARK  224  A    between atoms: _560  and  _561
REMARK  225  A    between atoms: _563  and  _565
REMARK  226  A    between atoms: _565  and  _566
REMARK  227  A    between atoms: _568  and  _570
REMARK  228  A    between atoms: _570  and  _571
REMARK  229  A    between atoms: _570  and  _573
REMARK  230  A    between atoms: _573  and  _574
REMARK  231  A    between atoms: _577  and  _579
REMARK  232  A    between atoms: _579  and  _580
REMARK  233  A    between atoms: _579  and  _582
REMARK                            x       y       z     vdW  Elec       q    Type
REMARK                         _______ _______ _______ _____ _____    ______ ____
ROOT
ATOM      1  CA  ILE A   4      -5.636  -9.417  20.059  0.00  0.00    +0.149 C 
ENDROOT
BRANCH   1   3
ATOM      2  C   ILE A   3      -7.996  -8.857  20.310  0.00  0.00    +0.241 C 
ATOM      3  N   ILE A   4      -6.824  -9.149  20.858  0.00  0.00    -0.297 N 
ATOM      4  H   ILE A   4      -6.751  -9.188  21.895  0.00  0.00    +0.150 HD
ATOM      5  O   ILE A   3      -8.189  -8.841  19.094  0.00  0.00    -0.273 OA
BRANCH   2   6
ATOM      6  CA  ILE A   3      -9.109  -8.497  21.283  0.00  0.00    +0.149 C 
BRANCH   6   9
ATOM      7  C   GLN A   2      -8.836  -6.171  21.895  0.00  0.00    +0.241 C 
ATOM      8  O   GLN A   2      -8.341  -6.440  22.989  0.00  0.00    -0.273 OA
ATOM      9  N   ILE A   3      -9.383  -7.083  21.102  0.00  0.00    -0.297 N 
ATOM     10  H   ILE A   3     -10.019  -6.780  20.337  0.00  0.00    +0.150 HD
BRANCH   7  11
ATOM     11  CA  GLN A   2      -8.851  -4.746  21.366  0.00  0.00    +0.149 C 
BRANCH  11  13
ATOM     12  C   ALA A   1      -9.259  -2.692  22.601  0.00  0.00    +0.238 C 
ATOM     13  N   GLN A   2      -8.514  -3.772  22.394  0.00  0.00    -0.297 N 
ATOM     14  H   GLN A   2      -7.669  -3.926  22.981  0.00  0.00    +0.150 HD
ATOM     15  O   ALA A   1     -10.290  -2.458  21.969  0.00  0.00    -0.274 OA
BRANCH  12  16
ATOM     16  CA  ALA A   1      -8.766  -1.734  23.679  0.00  0.00    +0.145 C 
ATOM     17  CB  ALA A   1      -8.221  -0.464  23.047  0.00  0.00    +0.028 C 
BRANCH  16  18
ATOM     18  N   ALA A   1      -7.750  -2.359  24.519  0.00  0.00    -0.238 NA
ATOM     19  H   ALA A   1      -6.753  -2.318  24.225  0.00  0.00    +0.142 HD
ENDBRANCH  16  18
ENDBRANCH  12  16
ENDBRANCH  11  13
BRANCH  11  20
ATOM     20  CB  GLN A   2      -7.875  -4.654  20.190  0.00  0.00    +0.039 C 
BRANCH  20  21
ATOM     21  CG  GLN A   2      -7.824  -3.318  19.485  0.00  0.00    +0.087 C 
BRANCH  21  22
ATOM     22  CD  GLN A   2      -6.909  -3.351  18.277  0.00  0.00    +0.219 C 
ATOM     23  NE2 GLN A   2      -6.419  -2.187  17.871  0.00  0.00    -0.329 N 
ATOM     24 HE21 GLN A   2      -6.671  -1.313  18.374  0.00  0.00    +0.145 HD
ATOM     25 HE22 GLN A   2      -5.783  -2.149  17.049  0.00  0.00    +0.145 HD
ATOM     26  OE1 GLN A   2      -6.643  -4.415  17.718  0.00  0.00    -0.275 OA
ENDBRANCH  21  22
ENDBRANCH  20  21
ENDBRANCH  11  20
ENDBRANCH   7  11
ENDBRANCH   6   9
BRANCH   6  27
ATOM     27  CB  ILE A   3     -10.348  -9.372  21.043  0.00  0.00    +0.027 C 
ATOM     28  CG2 ILE A   3      -9.952 -10.838  20.944  0.00  0.00    +0.002 C 
BRANCH  27  29
ATOM     29  CG1 ILE A   3     -11.356  -9.170  22.177  0.00  0.00    +0.002 C 
ATOM     30  CD1 ILE A   3     -12.580 -10.048  22.072  0.00  0.00    +0.000 C 
ENDBRANCH  27  29
ENDBRANCH   6  27
ENDBRANCH   2   6
ENDBRANCH   1   3
BRANCH   1  31
ATOM     31  C   ILE A   4      -5.165 -10.845  20.290  0.00  0.00    +0.241 C 
ATOM     32  O   ILE A   4      -4.617 -11.158  21.347  0.00  0.00    -0.273 OA
ATOM     33  N   LEU A   5      -5.383 -11.716  19.309  0.00  0.00    -0.297 N 
ATOM     34  H   LEU A   5      -5.811 -11.396  18.417  0.00  0.00    +0.150 HD
BRANCH  33  35
ATOM     35  CA  LEU A   5      -5.023 -13.118  19.482  0.00  0.00    +0.149 C 
BRANCH  35  36
ATOM     36  C   LEU A   5      -4.465 -13.772  18.224  0.00  0.00    +0.241 C 
ATOM     37  N   SER A   6      -3.706 -14.843  18.433  0.00  0.00    -0.295 N 
ATOM     38  H   SER A   6      -3.446 -15.088  19.410  0.00  0.00    +0.150 HD
ATOM     39  O   LEU A   5      -4.717 -13.325  17.105  0.00  0.00    -0.273 OA
BRANCH  37  40
ATOM     40  CA  SER A   6      -3.225 -15.686  17.349  0.00  0.00    +0.178 C 
BRANCH  40  41
ATOM     41  C   SER A   6      -3.470 -17.149  17.697  0.00  0.00    +0.243 C 
ATOM     42  O   SER A   6      -3.300 -17.557  18.847  0.00  0.00    -0.273 OA
ATOM     43  N   VAL A   7      -3.881 -17.936  16.708  0.00  0.00    -0.298 N 
ATOM     44  H   VAL A   7      -4.077 -17.524  15.774  0.00  0.00    +0.150 HD
BRANCH  43  45
ATOM     45  CA  VAL A   7      -4.062 -19.369  16.912  0.00  0.00    +0.137 C 
BRANCH  45  46
ATOM     46  CB  VAL A   7      -5.549 -19.791  16.802  0.00  0.00    +0.026 C 
ATOM     47  CG2 VAL A   7      -6.389 -19.076  17.854  0.00  0.00    +0.002 C 
ATOM     48  CG1 VAL A   7      -6.090 -19.525  15.403  0.00  0.00    +0.002 C 
ENDBRANCH  45  46
BRANCH  45  49
ATOM     49  C   VAL A   7      -3.234 -20.151  15.902  0.00  0.00    +0.227 C 
ATOM     50  O   VAL A   7      -2.931 -19.657  14.815  0.00  0.00    -0.286 OA
ENDBRANCH  45  49
ENDBRANCH  43  45
ENDBRANCH  40  41
BRANCH  40  51
ATOM     51  CB  SER A   6      -1.737 -15.445  17.080  0.00  0.00    +0.166 C 
BRANCH  51  52
ATOM     52  OG  SER A   6      -1.509 -14.137  16.584  0.00  0.00    -0.380 OA
ATOM     53  H   SER A   6      -1.821 -13.474  17.250  0.00  0.00    +0.211 HD
ENDBRANCH  51  52
ENDBRANCH  40  51
ENDBRANCH  37  40
ENDBRANCH  35  36
BRANCH  35  54
ATOM     54  CB  LEU A   5      -6.234 -13.918  19.985  0.00  0.00    +0.029 C 
BRANCH  54  55
ATOM     55  CG  LEU A   5      -7.530 -13.976  19.167  0.00  0.00    +0.002 C 
ATOM     56  CD2 LEU A   5      -8.711 -14.232  20.091  0.00  0.00    +0.000 C 
ATOM     57  CD1 LEU A   5      -7.479 -15.035  18.069  0.00  0.00    +0.000 C 
ENDBRANCH  54  55
ENDBRANCH  35  54
ENDBRANCH  33  35
ENDBRANCH   1  31
BRANCH   1  58
ATOM     58  CB  ILE A   4      -4.498  -8.433  20.406  0.00  0.00    +0.027 C 
ATOM     59  CG2 ILE A   4      -3.226  -8.789  19.660  0.00  0.00    +0.002 C 
BRANCH  58  60
ATOM     60  CG1 ILE A   4      -4.919  -6.997  20.092  0.00  0.00    +0.002 C 
ATOM     61  CD1 ILE A   4      -3.899  -5.961  20.505  0.00  0.00    +0.000 C 
ENDBRANCH  58  60
ENDBRANCH   1  58
TORSDOF 26
REMARK  Name = ../refined-set-2016/4xtx/4xtx_pocket.pdb
REMARK  233 active torsions:
REMARK  status: ('A' for Active; 'I' for Inactive)
REMARK    1  A    between atoms: _1  and  _3
REMARK    2  A    between atoms: _3  and  _4
REMARK    3  A    between atoms: _3  and  _6
REMARK    4  A    between atoms: _6  and  _7
REMARK    5  A    between atoms: _10  and  _12
REMARK    6  A    between atoms: _12  and  _13
REMARK    7  A    between atoms: _15  and  _17
REMARK    8  A    between atoms: _17  and  _18
REMARK    9  A    between atoms: _17  and  _20
REMARK   10  A    between atoms: _20  and  _21
REMARK   11  A    between atoms: _23  and  _25
REMARK   12  A    between atoms: _25  and  _26
REMARK   13  A    between atoms: _25  and  _28
REMARK   14  A    between atoms: _28  and  _29
REMARK   15  A    between atoms: _32  and  _34
REMARK   16  A    between atoms: _34  and  _35
REMARK   17  A    between atoms: _34  and  _37
REMARK   18  A    between atoms: _37  and  _38
REMARK   19  A    between atoms: _43  and  _45
REMARK   20  A    between atoms: _45  and  _46
REMARK   21  A    between atoms: _49  and  _51
REMARK   22  A    between atoms: _51  and  _52
REMARK   23  A    between atoms: _51  and  _54
REMARK   24  A    between atoms: _54  and  _55
REMARK   25  A    between atoms: _58  and  _60
REMARK   26  A    between atoms: _60  and  _61
REMARK   27  A    between atoms: _60  and  _63
REMARK   28  A    between atoms: _63  and  _64
REMARK   29  A    between atoms: _67  and  _69
REMARK   30  A    between atoms: _69  and  _70
REMARK   31  A    between atoms: _69  and  _72
REMARK   32  A    between atoms: _72  and  _73
REMARK   33  A    between atoms: _76  and  _78
REMARK   34  A    between atoms: _78  and  _79
REMARK   35  A    between atoms: _82  and  _84
REMARK   36  A    between atoms: _84  and  _85
REMARK   37  A    between atoms: _84  and  _87
REMARK   38  A    between atoms: _87  and  _88
REMARK   39  A    between atoms: _88  and  _89
REMARK   40  A    between atoms: _94  and  _96
REMARK   41  A    between atoms: _96  and  _97
REMARK   42  A    between atoms: _96  and  _99
REMARK   43  A    between atoms: _99  and  _100
REMARK   44  A    between atoms: _103  and  _105
REMARK   45  A    between atoms: _105  and  _106
REMARK   46  A    between atoms: _109  and  _111
REMARK   47  A    between atoms: _111  and  _112
REMARK   48  A    between atoms: _114  and  _116
REMARK   49  A    between atoms: _116  and  _117
REMARK   50  A    between atoms: _116  and  _119
REMARK   51  A    between atoms: _119  and  _120
REMARK   52  A    between atoms: _120  and  _121
REMARK   53  A    between atoms: _121  and  _122
REMARK   54  A    between atoms: _131  and  _133
REMARK   55  A    between atoms: _133  and  _134
REMARK   56  A    between atoms: _136  and  _138
REMARK   57  A    between atoms: _138  and  _139
REMARK   58  A    between atoms: _138  and  _141
REMARK   59  A    between atoms: _141  and  _142
REMARK   60  A    between atoms: _142  and  _143
REMARK   61  A    between atoms: _143  and  _144
REMARK   62  A    between atoms: _153  and  _155
REMARK   63  A    between atoms: _155  and  _156
REMARK   64  A    between atoms: _155  and  _158
REMARK   65  A    between atoms: _158  and  _159
REMARK   66  A    between atoms: _164  and  _166
REMARK   67  A    between atoms: _166  and  _167
REMARK   68  A    between atoms: _169  and  _171
REMARK   69  A    between atoms: _171  and  _172
REMARK   70  A    between atoms: _171  and  _174
REMARK   71  A    between atoms: _174  and  _175
REMARK   72  A    between atoms: _175  and  _176
REMARK   73  A    between atoms: _176  and  _177
REMARK   74  A    between atoms: _186  and  _188
REMARK   75  A    between atoms: _188  and  _189
REMARK   76  A    between atoms: _191  and  _193
REMARK   77  A    between atoms: _193  and  _194
REMARK   78  A    between atoms: _193  and  _196
REMARK   79  A    between atoms: _196  and  _197
REMARK   80  A    between atoms: _207  and  _209
REMARK   81  A    between atoms: _209  and  _210
REMARK   82  A    between atoms: _213  and  _215
REMARK   83  A    between atoms: _215  and  _216
REMARK   84  A    between atoms: _219  and  _221
REMARK   85  A    between atoms: _221  and  _222
REMARK   86  A    between atoms: _221  and  _224
REMARK   87  A    between atoms: _224  and  _225
REMARK   88  A    between atoms: _228  and  _230
REMARK   89  A    between atoms: _230  and  _231
REMARK   90  A    between atoms: _234  and  _236
REMARK   91  A    between atoms: _236  and  _237
REMARK   92  A    between atoms: _236  and  _239
REMARK   93  A    between atoms: _239  and  _240
REMARK   94  A    between atoms: _240  and  _241
REMARK   95  A    between atoms: _246  and  _248
REMARK   96  A    between atoms: _248  and  _249
REMARK   97  A    between atoms: _248  and  _251
REMARK   98  A    between atoms: _251  and  _252
REMARK   99  A    between atoms: _255  and  _257
REMARK  100  A    between atoms: _257  and  _258
REMARK  101  A    between atoms: _257  and  _260
REMARK  102  A    between atoms: _260  and  _261
REMARK  103  A    between atoms: _264  and  _266
REMARK  104  A    between atoms: _266  and  _267
REMARK  105  A    between atoms: _266  and  _269
REMARK  106  A    between atoms: _269  and  _270
REMARK  107  A    between atoms: _273  and  _275
REMARK  108  A    between atoms: _275  and  _276
REMARK  109  A    between atoms: _275  and  _278
REMARK  110  A    between atoms: _278  and  _279
REMARK  111  A    between atoms: _281  and  _283
REMARK  112  A    between atoms: _283  and  _284
REMARK  113  A    between atoms: _283  and  _286
REMARK  114  A    between atoms: _289  and  _291
REMARK  115  A    between atoms: _291  and  _292
REMARK  116  A    between atoms: _291  and  _294
REMARK  117  A    between atoms: _294  and  _295
REMARK  118  A    between atoms: _295  and  _296
REMARK  119  A    between atoms: _296  and  _297
REMARK  120  A    between atoms: _297  and  _298
REMARK  121  A    between atoms: _303  and  _304
REMARK  122  A    between atoms: _309  and  _311
REMARK  123  A    between atoms: _311  and  _312
REMARK  124  A    between atoms: _311  and  _314
REMARK  125  A    between atoms: _314  and  _315
REMARK  126  A    between atoms: _320  and  _322
REMARK  127  A    between atoms: _322  and  _323
REMARK  128  A    between atoms: _322  and  _325
REMARK  129  A    between atoms: _325  and  _326
REMARK  130  A    between atoms: _329  and  _331
REMARK  131  A    between atoms: _331  and  _332
REMARK  132  A    between atoms: _331  and  _334
REMARK  133  A    between atoms: _337  and  _339
REMARK  134  A    between atoms: _339  and  _340
REMARK  135  A    between atoms: _342  and  _344
REMARK  136  A    between atoms: _344  and  _345
REMARK  137  A    between atoms: _344  and  _347
REMARK  138  A    between atoms: _347  and  _348
REMARK  139  A    between atoms: _348  and  _349
REMARK  140  A    between atoms: _349  and  _350
REMARK  141  A    between atoms: _350  and  _351
REMARK  142  A    between atoms: _355  and  _357
REMARK  143  A    between atoms: _357  and  _358
REMARK  144  A    between atoms: _357  and  _360
REMARK  145  A    between atoms: _360  and  _361
REMARK  146  A    between atoms: _364  and  _366
REMARK  147  A    between atoms: _366  and  _367
REMARK  148  A    between atoms: _370  and  _372
REMARK  149  A    between atoms: _372  and  _373
REMARK  150  A    between atoms: _375  and  _377
REMARK  151  A    between atoms: _377  and  _378
REMARK  152  A    between atoms: _377  and  _380
REMARK  153  A    between atoms: _380  and  _381
REMARK  154  A    between atoms: _384  and  _386
REMARK  155  A    between atoms: _386  and  _387
REMARK  156  A    between atoms: _386  and  _389
REMARK  157  A    between atoms: _389  and  _390
REMARK  158  A    between atoms: _393  and  _395
REMARK  159  A    between atoms: _395  and  _396
REMARK  160  A    between atoms: _399  and  _401
REMARK  161  A    between atoms: _401  and  _402
REMARK  162  A    between atoms: _401  and  _404
REMARK  163  A    between atoms: _404  and  _405
REMARK  164  A    between atoms: _405  and  _406
REMARK  165  A    between atoms: _409  and  _411
REMARK  166  A    between atoms: _411  and  _412
REMARK  167  A    between atoms: _411  and  _414
REMARK  168  A    between atoms: _417  and  _419
REMARK  169  A    between atoms: _419  and  _420
REMARK  170  A    between atoms: _419  and  _422
REMARK  171  A    between atoms: _422  and  _423
REMARK  172  A    between atoms: _426  and  _428
REMARK  173  A    between atoms: _428  and  _429
REMARK  174  A    between atoms: _431  and  _433
REMARK  175  A    between atoms: _433  and  _434
REMARK  176  A    between atoms: _433  and  _436
REMARK  177  A    between atoms: _439  and  _441
REMARK  178  A    between atoms: _441  and  _442
REMARK  179  A    between atoms: _444  and  _446
REMARK  180  A    between atoms: _446  and  _447
REMARK  181  A    between atoms: _446  and  _449
REMARK  182  A    between atoms: _449  and  _450
REMARK  183  A    between atoms: _453  and  _455
REMARK  184  A    between atoms: _455  and  _456
REMARK  185  A    between atoms: _455  and  _458
REMARK  186  A    between atoms: _458  and  _459
REMARK  187  A    between atoms: _464  and  _466
REMARK  188  A    between atoms: _466  and  _467
REMARK  189  A    between atoms: _466  and  _469
REMARK  190  A    between atoms: _472  and  _474
REMARK  191  A    between atoms: _474  and  _475
REMARK  192  A    between atoms: _474  and  _477
REMARK  193  A    between atoms: _477  and  _478
REMARK  194  A    between atoms: _478  and  _479
REMARK  195  A    between atoms: _484  and  _486
REMARK  196  A    between atoms: _486  and  _487
REMARK  197  A    between atoms: _491  and  _492
REMARK  198  A    between atoms: _497  and  _499
REMARK  199  A    between atoms: _499  and  _500
REMARK  200  A    between atoms: _499  and  _502
REMARK  201  A    between atoms: _502  and  _503
REMARK  202  A    between atoms: _503  and  _504
REMARK  203  A    between atoms: _507  and  _509
REMARK  204  A    between atoms: _509  and  _510
REMARK  205  A    between atoms: _509  and  _512
REMARK  206  A    between atoms: _515  and  _517
REMARK  207  A    between atoms: _517  and  _518
REMARK  208  A    between atoms: _517  and  _520
REMARK  209  A    between atoms: _520  and  _521
REMARK  210  A    between atoms: _525  and  _526
REMARK  211  A    between atoms: _531  and  _533
REMARK  212  A    between atoms: _533  and  _534
REMARK  213  A    between atoms: _533  and  _536
REMARK  214  A    between atoms: _536  and  _537
REMARK  215  A    between atoms: _540  and  _542
REMARK  216  A    between atoms: _542  and  _543
REMARK  217  A    between atoms: _546  and  _548
REMARK  218  A    between atoms: _548  and  _549
REMARK  219  A    between atoms: _548  and  _551
REMARK  220  A    between atoms: _551  and  _552
REMARK  221  A    between atoms: _555  and  _557
REMARK  222  A    between atoms: _557  and  _558
REMARK  223  A    between atoms: _557  and  _560
REMARK  224  A    between atoms: _560  and  _561
REMARK  225  A    between atoms: _563  and  _565
REMARK  226  A    between atoms: _565  and  _566
REMARK  227  A    between atoms: _568  and  _570
REMARK  228  A    between atoms: _570  and  _571
REMARK  229  A    between atoms: _570  and  _573
REMARK  230  A    between atoms: _573  and  _574
REMARK  231  A    between atoms: _577  and  _579
REMARK  232  A    between atoms: _579  and  _580
REMARK  233  A    between atoms: _579  and  _582
REMARK                            x       y       z     vdW  Elec       q    Type
REMARK                         _______ _______ _______ _____ _____    ______ ____
ROOT
ATOM      1  CG  LYS A   1     -13.464  -5.072   1.512  0.00  0.00    -0.000 C 
ENDROOT
BRANCH   1   2
ATOM      2  CB  LYS A   1     -14.150  -5.643   2.746  0.00  0.00    +0.025 C 
BRANCH   2   3
ATOM      3  CA  LYS A   1     -14.633  -7.084   2.561  0.00  0.00    +0.133 C 
BRANCH   3   4
ATOM      4  N   LYS A   1     -15.272  -7.594   3.765  0.00  0.00    -0.239 NA
ATOM      5  H   LYS A   1     -14.886  -7.336   4.696  0.00  0.00    +0.142 HD
ENDBRANCH   3   4
BRANCH   3   6
ATOM      6  C   LYS A   1     -13.468  -7.997   2.213  0.00  0.00    +0.224 C 
ATOM      7  O   LYS A   1     -12.645  -8.311   3.074  0.00  0.00    -0.287 OA
ENDBRANCH   3   6
ENDBRANCH   2   3
ENDBRANCH   1   2
BRANCH   1   8
ATOM      8  CD  LYS A   1     -13.160  -3.587   1.655  0.00  0.00    -0.024 C 
BRANCH   8   9
ATOM      9  CE  LYS A   1     -12.021  -3.337   2.626  0.00  0.00    -0.086 C 
BRANCH   9  10
ATOM     10  NZ  LYS A   1     -11.646  -1.896   2.662  0.00  0.00    +0.380 N 
ATOM     11  HZ1 LYS A   1     -10.865  -1.759   3.335  0.00  0.00    -0.089 HD
ATOM     12  HZ2 LYS A   1     -12.467  -1.333   2.963  0.00  0.00    -0.089 HD
ATOM     13  HZ3 LYS A   1     -11.345  -1.594   1.714  0.00  0.00    -0.089 HD
ENDBRANCH   9  10
ENDBRANCH   8   9
ENDBRANCH   1   8
TORSDOF 7
REMARK  Name = ../refined-set-2016/4xtx/4xtx_pocket.pdb
REMARK  233 active torsions:
REMARK  status: ('A' for Active; 'I' for Inactive)
REMARK    1  A    between atoms: _1  and  _3
REMARK    2  A    between atoms: _3  and  _4
REMARK    3  A    between atoms: _3  and  _6
REMARK    4  A    between atoms: _6  and  _7
REMARK    5  A    between atoms: _10  and  _12
REMARK    6  A    between atoms: _12  and  _13
REMARK    7  A    between atoms: _15  and  _17
REMARK    8  A    between atoms: _17  and  _18
REMARK    9  A    between atoms: _17  and  _20
REMARK   10  A    between atoms: _20  and  _21
REMARK   11  A    between atoms: _23  and  _25
REMARK   12  A    between atoms: _25  and  _26
REMARK   13  A    between atoms: _25  and  _28
REMARK   14  A    between atoms: _28  and  _29
REMARK   15  A    between atoms: _32  and  _34
REMARK   16  A    between atoms: _34  and  _35
REMARK   17  A    between atoms: _34  and  _37
REMARK   18  A    between atoms: _37  and  _38
REMARK   19  A    between atoms: _43  and  _45
REMARK   20  A    between atoms: _45  and  _46
REMARK   21  A    between atoms: _49  and  _51
REMARK   22  A    between atoms: _51  and  _52
REMARK   23  A    between atoms: _51  and  _54
REMARK   24  A    between atoms: _54  and  _55
REMARK   25  A    between atoms: _58  and  _60
REMARK   26  A    between atoms: _60  and  _61
REMARK   27  A    between atoms: _60  and  _63
REMARK   28  A    between atoms: _63  and  _64
REMARK   29  A    between atoms: _67  and  _69
REMARK   30  A    between atoms: _69  and  _70
REMARK   31  A    between atoms: _69  and  _72
REMARK   32  A    between atoms: _72  and  _73
REMARK   33  A    between atoms: _76  and  _78
REMARK   34  A    between atoms: _78  and  _79
REMARK   35  A    between atoms: _82  and  _84
REMARK   36  A    between atoms: _84  and  _85
REMARK   37  A    between atoms: _84  and  _87
REMARK   38  A    between atoms: _87  and  _88
REMARK   39  A    between atoms: _88  and  _89
REMARK   40  A    between atoms: _94  and  _96
REMARK   41  A    between atoms: _96  and  _97
REMARK   42  A    between atoms: _96  and  _99
REMARK   43  A    between atoms: _99  and  _100
REMARK   44  A    between atoms: _103  and  _105
REMARK   45  A    between atoms: _105  and  _106
REMARK   46  A    between atoms: _109  and  _111
REMARK   47  A    between atoms: _111  and  _112
REMARK   48  A    between atoms: _114  and  _116
REMARK   49  A    between atoms: _116  and  _117
REMARK   50  A    between atoms: _116  and  _119
REMARK   51  A    between atoms: _119  and  _120
REMARK   52  A    between atoms: _120  and  _121
REMARK   53  A    between atoms: _121  and  _122
REMARK   54  A    between atoms: _131  and  _133
REMARK   55  A    between atoms: _133  and  _134
REMARK   56  A    between atoms: _136  and  _138
REMARK   57  A    between atoms: _138  and  _139
REMARK   58  A    between atoms: _138  and  _141
REMARK   59  A    between atoms: _141  and  _142
REMARK   60  A    between atoms: _142  and  _143
REMARK   61  A    between atoms: _143  and  _144
REMARK   62  A    between atoms: _153  and  _155
REMARK   63  A    between atoms: _155  and  _156
REMARK   64  A    between atoms: _155  and  _158
REMARK   65  A    between atoms: _158  and  _159
REMARK   66  A    between atoms: _164  and  _166
REMARK   67  A    between atoms: _166  and  _167
REMARK   68  A    between atoms: _169  and  _171
REMARK   69  A    between atoms: _171  and  _172
REMARK   70  A    between atoms: _171  and  _174
REMARK   71  A    between atoms: _174  and  _175
REMARK   72  A    between atoms: _175  and  _176
REMARK   73  A    between atoms: _176  and  _177
REMARK   74  A    between atoms: _186  and  _188
REMARK   75  A    between atoms: _188  and  _189
REMARK   76  A    between atoms: _191  and  _193
REMARK   77  A    between atoms: _193  and  _194
REMARK   78  A    between atoms: _193  and  _196
REMARK   79  A    between atoms: _196  and  _197
REMARK   80  A    between atoms: _207  and  _209
REMARK   81  A    between atoms: _209  and  _210
REMARK   82  A    between atoms: _213  and  _215
REMARK   83  A    between atoms: _215  and  _216
REMARK   84  A    between atoms: _219  and  _221
REMARK   85  A    between atoms: _221  and  _222
REMARK   86  A    between atoms: _221  and  _224
REMARK   87  A    between atoms: _224  and  _225
REMARK   88  A    between atoms: _228  and  _230
REMARK   89  A    between atoms: _230  and  _231
REMARK   90  A    between atoms: _234  and  _236
REMARK   91  A    between atoms: _236  and  _237
REMARK   92  A    between atoms: _236  and  _239
REMARK   93  A    between atoms: _239  and  _240
REMARK   94  A    between atoms: _240  and  _241
REMARK   95  A    between atoms: _246  and  _248
REMARK   96  A    between atoms: _248  and  _249
REMARK   97  A    between atoms: _248  and  _251
REMARK   98  A    between atoms: _251  and  _252
REMARK   99  A    between atoms: _255  and  _257
REMARK  100  A    between atoms: _257  and  _258
REMARK  101  A    between atoms: _257  and  _260
REMARK  102  A    between atoms: _260  and  _261
REMARK  103  A    between atoms: _264  and  _266
REMARK  104  A    between atoms: _266  and  _267
REMARK  105  A    between atoms: _266  and  _269
REMARK  106  A    between atoms: _269  and  _270
REMARK  107  A    between atoms: _273  and  _275
REMARK  108  A    between atoms: _275  and  _276
REMARK  109  A    between atoms: _275  and  _278
REMARK  110  A    between atoms: _278  and  _279
REMARK  111  A    between atoms: _281  and  _283
REMARK  112  A    between atoms: _283  and  _284
REMARK  113  A    between atoms: _283  and  _286
REMARK  114  A    between atoms: _289  and  _291
REMARK  115  A    between atoms: _291  and  _292
REMARK  116  A    between atoms: _291  and  _294
REMARK  117  A    between atoms: _294  and  _295
REMARK  118  A    between atoms: _295  and  _296
REMARK  119  A    between atoms: _296  and  _297
REMARK  120  A    between atoms: _297  and  _298
REMARK  121  A    between atoms: _303  and  _304
REMARK  122  A    between atoms: _309  and  _311
REMARK  123  A    between atoms: _311  and  _312
REMARK  124  A    between atoms: _311  and  _314
REMARK  125  A    between atoms: _314  and  _315
REMARK  126  A    between atoms: _320  and  _322
REMARK  127  A    between atoms: _322  and  _323
REMARK  128  A    between atoms: _322  and  _325
REMARK  129  A    between atoms: _325  and  _326
REMARK  130  A    between atoms: _329  and  _331
REMARK  131  A    between atoms: _331  and  _332
REMARK  132  A    between atoms: _331  and  _334
REMARK  133  A    between atoms: _337  and  _339
REMARK  134  A    between atoms: _339  and  _340
REMARK  135  A    between atoms: _342  and  _344
REMARK  136  A    between atoms: _344  and  _345
REMARK  137  A    between atoms: _344  and  _347
REMARK  138  A    between atoms: _347  and  _348
REMARK  139  A    between atoms: _348  and  _349
REMARK  140  A    between atoms: _349  and  _350
REMARK  141  A    between atoms: _350  and  _351
REMARK  142  A    between atoms: _355  and  _357
REMARK  143  A    between atoms: _357  and  _358
REMARK  144  A    between atoms: _357  and  _360
REMARK  145  A    between atoms: _360  and  _361
REMARK  146  A    between atoms: _364  and  _366
REMARK  147  A    between atoms: _366  and  _367
REMARK  148  A    between atoms: _370  and  _372
REMARK  149  A    between atoms: _372  and  _373
REMARK  150  A    between atoms: _375  and  _377
REMARK  151  A    between atoms: _377  and  _378
REMARK  152  A    between atoms: _377  and  _380
REMARK  153  A    between atoms: _380  and  _381
REMARK  154  A    between atoms: _384  and  _386
REMARK  155  A    between atoms: _386  and  _387
REMARK  156  A    between atoms: _386  and  _389
REMARK  157  A    between atoms: _389  and  _390
REMARK  158  A    between atoms: _393  and  _395
REMARK  159  A    between atoms: _395  and  _396
REMARK  160  A    between atoms: _399  and  _401
REMARK  161  A    between atoms: _401  and  _402
REMARK  162  A    between atoms: _401  and  _404
REMARK  163  A    between atoms: _404  and  _405
REMARK  164  A    between atoms: _405  and  _406
REMARK  165  A    between atoms: _409  and  _411
REMARK  166  A    between atoms: _411  and  _412
REMARK  167  A    between atoms: _411  and  _414
REMARK  168  A    between atoms: _417  and  _419
REMARK  169  A    between atoms: _419  and  _420
REMARK  170  A    between atoms: _419  and  _422
REMARK  171  A    between atoms: _422  and  _423
REMARK  172  A    between atoms: _426  and  _428
REMARK  173  A    between atoms: _428  and  _429
REMARK  174  A    between atoms: _431  and  _433
REMARK  175  A    between atoms: _433  and  _434
REMARK  176  A    between atoms: _433  and  _436
REMARK  177  A    between atoms: _439  and  _441
REMARK  178  A    between atoms: _441  and  _442
REMARK  179  A    between atoms: _444  and  _446
REMARK  180  A    between atoms: _446  and  _447
REMARK  181  A    between atoms: _446  and  _449
REMARK  182  A    between atoms: _449  and  _450
REMARK  183  A    between atoms: _453  and  _455
REMARK  184  A    between atoms: _455  and  _456
REMARK  185  A    between atoms: _455  and  _458
REMARK  186  A    between atoms: _458  and  _459
REMARK  187  A    between atoms: _464  and  _466
REMARK  188  A    between atoms: _466  and  _467
REMARK  189  A    between atoms: _466  and  _469
REMARK  190  A    between atoms: _472  and  _474
REMARK  191  A    between atoms: _474  and  _475
REMARK  192  A    between atoms: _474  and  _477
REMARK  193  A    between atoms: _477  and  _478
REMARK  194  A    between atoms: _478  and  _479
REMARK  195  A    between atoms: _484  and  _486
REMARK  196  A    between atoms: _486  and  _487
REMARK  197  A    between atoms: _491  and  _492
REMARK  198  A    between atoms: _497  and  _499
REMARK  199  A    between atoms: _499  and  _500
REMARK  200  A    between atoms: _499  and  _502
REMARK  201  A    between atoms: _502  and  _503
REMARK  202  A    between atoms: _503  and  _504
REMARK  203  A    between atoms: _507  and  _509
REMARK  204  A    between atoms: _509  and  _510
REMARK  205  A    between atoms: _509  and  _512
REMARK  206  A    between atoms: _515  and  _517
REMARK  207  A    between atoms: _517  and  _518
REMARK  208  A    between atoms: _517  and  _520
REMARK  209  A    between atoms: _520  and  _521
REMARK  210  A    between atoms: _525  and  _526
REMARK  211  A    between atoms: _531  and  _533
REMARK  212  A    between atoms: _533  and  _534
REMARK  213  A    between atoms: _533  and  _536
REMARK  214  A    between atoms: _536  and  _537
REMARK  215  A    between atoms: _540  and  _542
REMARK  216  A    between atoms: _542  and  _543
REMARK  217  A    between atoms: _546  and  _548
REMARK  218  A    between atoms: _548  and  _549
REMARK  219  A    between atoms: _548  and  _551
REMARK  220  A    between atoms: _551  and  _552
REMARK  221  A    between atoms: _555  and  _557
REMARK  222  A    between atoms: _557  and  _558
REMARK  223  A    between atoms: _557  and  _560
REMARK  224  A    between atoms: _560  and  _561
REMARK  225  A    between atoms: _563  and  _565
REMARK  226  A    between atoms: _565  and  _566
REMARK  227  A    between atoms: _568  and  _570
REMARK  228  A    between atoms: _570  and  _571
REMARK  229  A    between atoms: _570  and  _573
REMARK  230  A    between atoms: _573  and  _574
REMARK  231  A    between atoms: _577  and  _579
REMARK  232  A    between atoms: _579  and  _580
REMARK  233  A    between atoms: _579  and  _582
REMARK                            x       y       z     vdW  Elec       q    Type
REMARK                         _______ _______ _______ _____ _____    ______ ____
ROOT
ATOM      1  C   ASN A   2     -11.438  -9.751   6.264  0.00  0.00    +0.241 C 
ATOM      2  O   ASN A   2     -11.513  -9.926   7.481  0.00  0.00    -0.273 OA
ATOM      3  N   ASP A   3     -11.456  -8.541   5.712  0.00  0.00    -0.297 N 
ATOM      4  H   ASP A   3     -11.309  -8.442   4.687  0.00  0.00    +0.150 HD
ENDROOT
BRANCH   1   5
ATOM      5  CA  ASN A   2     -11.314 -10.945   5.319  0.00  0.00    +0.158 C 
BRANCH   5   7
ATOM      6  C   PRO A   1     -11.044 -11.151   2.914  0.00  0.00    +0.239 C 
ATOM      7  N   ASN A   2     -10.614 -10.657   4.071  0.00  0.00    -0.297 N 
ATOM      8  H   ASN A   2      -9.765 -10.056   4.087  0.00  0.00    +0.150 HD
ATOM      9  O   PRO A   1     -12.105 -11.768   2.798  0.00  0.00    -0.274 OA
BRANCH   6  11
ATOM     10  N   PRO A   1     -10.039  -9.507   1.295  0.00  0.00    -0.210 NA
ATOM     11  CA  PRO A   1     -10.167 -10.919   1.682  0.00  0.00    +0.149 C 
ATOM     12  CB  PRO A   1      -8.719 -11.336   1.978  0.00  0.00    +0.028 C 
ATOM     13  CG  PRO A   1      -7.860 -10.266   1.375  0.00  0.00    +0.021 C 
ATOM     14  CD  PRO A   1      -8.665  -9.017   1.493  0.00  0.00    +0.089 C 
ENDBRANCH   6  11
ENDBRANCH   5   7
BRANCH   5  15
ATOM     15  CB  ASN A   2     -10.613 -12.095   6.042  0.00  0.00    +0.114 C 
BRANCH  15  16
ATOM     16  CG  ASN A   2      -9.104 -11.952   6.027  0.00  0.00    +0.222 C 
ATOM     17  ND2 ASN A   2      -8.402 -13.055   6.257  0.00  0.00    -0.329 N 
ATOM     18 HD21 ASN A   2      -8.891 -13.954   6.441  0.00  0.00    +0.145 HD
ATOM     19 HD22 ASN A   2      -7.363 -13.020   6.253  0.00  0.00    +0.145 HD
ATOM     20  OD1 ASN A   2      -8.575 -10.861   5.803  0.00  0.00    -0.275 OA
ENDBRANCH  15  16
ENDBRANCH   5  15
ENDBRANCH   1   5
BRANCH   3  21
ATOM     21  CA  ASP A   3     -11.679  -7.350   6.526  0.00  0.00    +0.160 C 
BRANCH  21  22
ATOM     22  C   ASP A   3     -13.115  -7.331   7.037  0.00  0.00    +0.241 C 
ATOM     23  N   VAL A   4     -13.277  -7.167   8.345  0.00  0.00    -0.298 N 
ATOM     24  H   VAL A   4     -12.441  -7.110   8.961  0.00  0.00    +0.150 HD
ATOM     25  O   ASP A   3     -14.059  -7.471   6.258  0.00  0.00    -0.273 OA
BRANCH  23  26
ATOM     26  CA  VAL A   4     -14.606  -7.066   8.931  0.00  0.00    +0.137 C 
BRANCH  26  27
ATOM     27  CB  VAL A   4     -14.646  -7.622  10.367  0.00  0.00    +0.026 C 
ATOM     28  CG2 VAL A   4     -16.034  -7.451  10.962  0.00  0.00    +0.002 C 
ATOM     29  CG1 VAL A   4     -14.237  -9.086  10.378  0.00  0.00    +0.002 C 
ENDBRANCH  26  27
BRANCH  26  30
ATOM     30  C   VAL A   4     -15.056  -5.611   8.928  0.00  0.00    +0.227 C 
ATOM     31  O   VAL A   4     -14.467  -4.766   9.602  0.00  0.00    -0.286 OA
ENDBRANCH  26  30
ENDBRANCH  23  26
ENDBRANCH  21  22
BRANCH  21  32
ATOM     32  CB  ASP A   3     -11.388  -6.072   5.732  0.00  0.00    +0.143 C 
BRANCH  32  33
ATOM     33  CG  ASP A   3      -9.904  -5.857   5.485  0.00  0.00    +0.367 C 
ATOM     34  OD2 ASP A   3      -9.080  -6.471   6.195  0.00  0.00    -0.246 OA
ATOM     35  OD1 ASP A   3      -9.563  -5.064   4.582  0.00  0.00    -0.246 OA
ENDBRANCH  32  33
ENDBRANCH  21  32
ENDBRANCH   3  21
TORSDOF 12
REMARK  Name = ../refined-set-2016/4xtx/4xtx_pocket.pdb
REMARK  233 active torsions:
REMARK  status: ('A' for Active; 'I' for Inactive)
REMARK    1  A    between atoms: _1  and  _3
REMARK    2  A    between atoms: _3  and  _4
REMARK    3  A    between atoms: _3  and  _6
REMARK    4  A    between atoms: _6  and  _7
REMARK    5  A    between atoms: _10  and  _12
REMARK    6  A    between atoms: _12  and  _13
REMARK    7  A    between atoms: _15  and  _17
REMARK    8  A    between atoms: _17  and  _18
REMARK    9  A    between atoms: _17  and  _20
REMARK   10  A    between atoms: _20  and  _21
REMARK   11  A    between atoms: _23  and  _25
REMARK   12  A    between atoms: _25  and  _26
REMARK   13  A    between atoms: _25  and  _28
REMARK   14  A    between atoms: _28  and  _29
REMARK   15  A    between atoms: _32  and  _34
REMARK   16  A    between atoms: _34  and  _35
REMARK   17  A    between atoms: _34  and  _37
REMARK   18  A    between atoms: _37  and  _38
REMARK   19  A    between atoms: _43  and  _45
REMARK   20  A    between atoms: _45  and  _46
REMARK   21  A    between atoms: _49  and  _51
REMARK   22  A    between atoms: _51  and  _52
REMARK   23  A    between atoms: _51  and  _54
REMARK   24  A    between atoms: _54  and  _55
REMARK   25  A    between atoms: _58  and  _60
REMARK   26  A    between atoms: _60  and  _61
REMARK   27  A    between atoms: _60  and  _63
REMARK   28  A    between atoms: _63  and  _64
REMARK   29  A    between atoms: _67  and  _69
REMARK   30  A    between atoms: _69  and  _70
REMARK   31  A    between atoms: _69  and  _72
REMARK   32  A    between atoms: _72  and  _73
REMARK   33  A    between atoms: _76  and  _78
REMARK   34  A    between atoms: _78  and  _79
REMARK   35  A    between atoms: _82  and  _84
REMARK   36  A    between atoms: _84  and  _85
REMARK   37  A    between atoms: _84  and  _87
REMARK   38  A    between atoms: _87  and  _88
REMARK   39  A    between atoms: _88  and  _89
REMARK   40  A    between atoms: _94  and  _96
REMARK   41  A    between atoms: _96  and  _97
REMARK   42  A    between atoms: _96  and  _99
REMARK   43  A    between atoms: _99  and  _100
REMARK   44  A    between atoms: _103  and  _105
REMARK   45  A    between atoms: _105  and  _106
REMARK   46  A    between atoms: _109  and  _111
REMARK   47  A    between atoms: _111  and  _112
REMARK   48  A    between atoms: _114  and  _116
REMARK   49  A    between atoms: _116  and  _117
REMARK   50  A    between atoms: _116  and  _119
REMARK   51  A    between atoms: _119  and  _120
REMARK   52  A    between atoms: _120  and  _121
REMARK   53  A    between atoms: _121  and  _122
REMARK   54  A    between atoms: _131  and  _133
REMARK   55  A    between atoms: _133  and  _134
REMARK   56  A    between atoms: _136  and  _138
REMARK   57  A    between atoms: _138  and  _139
REMARK   58  A    between atoms: _138  and  _141
REMARK   59  A    between atoms: _141  and  _142
REMARK   60  A    between atoms: _142  and  _143
REMARK   61  A    between atoms: _143  and  _144
REMARK   62  A    between atoms: _153  and  _155
REMARK   63  A    between atoms: _155  and  _156
REMARK   64  A    between atoms: _155  and  _158
REMARK   65  A    between atoms: _158  and  _159
REMARK   66  A    between atoms: _164  and  _166
REMARK   67  A    between atoms: _166  and  _167
REMARK   68  A    between atoms: _169  and  _171
REMARK   69  A    between atoms: _171  and  _172
REMARK   70  A    between atoms: _171  and  _174
REMARK   71  A    between atoms: _174  and  _175
REMARK   72  A    between atoms: _175  and  _176
REMARK   73  A    between atoms: _176  and  _177
REMARK   74  A    between atoms: _186  and  _188
REMARK   75  A    between atoms: _188  and  _189
REMARK   76  A    between atoms: _191  and  _193
REMARK   77  A    between atoms: _193  and  _194
REMARK   78  A    between atoms: _193  and  _196
REMARK   79  A    between atoms: _196  and  _197
REMARK   80  A    between atoms: _207  and  _209
REMARK   81  A    between atoms: _209  and  _210
REMARK   82  A    between atoms: _213  and  _215
REMARK   83  A    between atoms: _215  and  _216
REMARK   84  A    between atoms: _219  and  _221
REMARK   85  A    between atoms: _221  and  _222
REMARK   86  A    between atoms: _221  and  _224
REMARK   87  A    between atoms: _224  and  _225
REMARK   88  A    between atoms: _228  and  _230
REMARK   89  A    between atoms: _230  and  _231
REMARK   90  A    between atoms: _234  and  _236
REMARK   91  A    between atoms: _236  and  _237
REMARK   92  A    between atoms: _236  and  _239
REMARK   93  A    between atoms: _239  and  _240
REMARK   94  A    between atoms: _240  and  _241
REMARK   95  A    between atoms: _246  and  _248
REMARK   96  A    between atoms: _248  and  _249
REMARK   97  A    between atoms: _248  and  _251
REMARK   98  A    between atoms: _251  and  _252
REMARK   99  A    between atoms: _255  and  _257
REMARK  100  A    between atoms: _257  and  _258
REMARK  101  A    between atoms: _257  and  _260
REMARK  102  A    between atoms: _260  and  _261
REMARK  103  A    between atoms: _264  and  _266
REMARK  104  A    between atoms: _266  and  _267
REMARK  105  A    between atoms: _266  and  _269
REMARK  106  A    between atoms: _269  and  _270
REMARK  107  A    between atoms: _273  and  _275
REMARK  108  A    between atoms: _275  and  _276
REMARK  109  A    between atoms: _275  and  _278
REMARK  110  A    between atoms: _278  and  _279
REMARK  111  A    between atoms: _281  and  _283
REMARK  112  A    between atoms: _283  and  _284
REMARK  113  A    between atoms: _283  and  _286
REMARK  114  A    between atoms: _289  and  _291
REMARK  115  A    between atoms: _291  and  _292
REMARK  116  A    between atoms: _291  and  _294
REMARK  117  A    between atoms: _294  and  _295
REMARK  118  A    between atoms: _295  and  _296
REMARK  119  A    between atoms: _296  and  _297
REMARK  120  A    between atoms: _297  and  _298
REMARK  121  A    between atoms: _303  and  _304
REMARK  122  A    between atoms: _309  and  _311
REMARK  123  A    between atoms: _311  and  _312
REMARK  124  A    between atoms: _311  and  _314
REMARK  125  A    between atoms: _314  and  _315
REMARK  126  A    between atoms: _320  and  _322
REMARK  127  A    between atoms: _322  and  _323
REMARK  128  A    between atoms: _322  and  _325
REMARK  129  A    between atoms: _325  and  _326
REMARK  130  A    between atoms: _329  and  _331
REMARK  131  A    between atoms: _331  and  _332
REMARK  132  A    between atoms: _331  and  _334
REMARK  133  A    between atoms: _337  and  _339
REMARK  134  A    between atoms: _339  and  _340
REMARK  135  A    between atoms: _342  and  _344
REMARK  136  A    between atoms: _344  and  _345
REMARK  137  A    between atoms: _344  and  _347
REMARK  138  A    between atoms: _347  and  _348
REMARK  139  A    between atoms: _348  and  _349
REMARK  140  A    between atoms: _349  and  _350
REMARK  141  A    between atoms: _350  and  _351
REMARK  142  A    between atoms: _355  and  _357
REMARK  143  A    between atoms: _357  and  _358
REMARK  144  A    between atoms: _357  and  _360
REMARK  145  A    between atoms: _360  and  _361
REMARK  146  A    between atoms: _364  and  _366
REMARK  147  A    between atoms: _366  and  _367
REMARK  148  A    between atoms: _370  and  _372
REMARK  149  A    between atoms: _372  and  _373
REMARK  150  A    between atoms: _375  and  _377
REMARK  151  A    between atoms: _377  and  _378
REMARK  152  A    between atoms: _377  and  _380
REMARK  153  A    between atoms: _380  and  _381
REMARK  154  A    between atoms: _384  and  _386
REMARK  155  A    between atoms: _386  and  _387
REMARK  156  A    between atoms: _386  and  _389
REMARK  157  A    between atoms: _389  and  _390
REMARK  158  A    between atoms: _393  and  _395
REMARK  159  A    between atoms: _395  and  _396
REMARK  160  A    between atoms: _399  and  _401
REMARK  161  A    between atoms: _401  and  _402
REMARK  162  A    between atoms: _401  and  _404
REMARK  163  A    between atoms: _404  and  _405
REMARK  164  A    between atoms: _405  and  _406
REMARK  165  A    between atoms: _409  and  _411
REMARK  166  A    between atoms: _411  and  _412
REMARK  167  A    between atoms: _411  and  _414
REMARK  168  A    between atoms: _417  and  _419
REMARK  169  A    between atoms: _419  and  _420
REMARK  170  A    between atoms: _419  and  _422
REMARK  171  A    between atoms: _422  and  _423
REMARK  172  A    between atoms: _426  and  _428
REMARK  173  A    between atoms: _428  and  _429
REMARK  174  A    between atoms: _431  and  _433
REMARK  175  A    between atoms: _433  and  _434
REMARK  176  A    between atoms: _433  and  _436
REMARK  177  A    between atoms: _439  and  _441
REMARK  178  A    between atoms: _441  and  _442
REMARK  179  A    between atoms: _444  and  _446
REMARK  180  A    between atoms: _446  and  _447
REMARK  181  A    between atoms: _446  and  _449
REMARK  182  A    between atoms: _449  and  _450
REMARK  183  A    between atoms: _453  and  _455
REMARK  184  A    between atoms: _455  and  _456
REMARK  185  A    between atoms: _455  and  _458
REMARK  186  A    between atoms: _458  and  _459
REMARK  187  A    between atoms: _464  and  _466
REMARK  188  A    between atoms: _466  and  _467
REMARK  189  A    between atoms: _466  and  _469
REMARK  190  A    between atoms: _472  and  _474
REMARK  191  A    between atoms: _474  and  _475
REMARK  192  A    between atoms: _474  and  _477
REMARK  193  A    between atoms: _477  and  _478
REMARK  194  A    between atoms: _478  and  _479
REMARK  195  A    between atoms: _484  and  _486
REMARK  196  A    between atoms: _486  and  _487
REMARK  197  A    between atoms: _491  and  _492
REMARK  198  A    between atoms: _497  and  _499
REMARK  199  A    between atoms: _499  and  _500
REMARK  200  A    between atoms: _499  and  _502
REMARK  201  A    between atoms: _502  and  _503
REMARK  202  A    between atoms: _503  and  _504
REMARK  203  A    between atoms: _507  and  _509
REMARK  204  A    between atoms: _509  and  _510
REMARK  205  A    between atoms: _509  and  _512
REMARK  206  A    between atoms: _515  and  _517
REMARK  207  A    between atoms: _517  and  _518
REMARK  208  A    between atoms: _517  and  _520
REMARK  209  A    between atoms: _520  and  _521
REMARK  210  A    between atoms: _525  and  _526
REMARK  211  A    between atoms: _531  and  _533
REMARK  212  A    between atoms: _533  and  _534
REMARK  213  A    between atoms: _533  and  _536
REMARK  214  A    between atoms: _536  and  _537
REMARK  215  A    between atoms: _540  and  _542
REMARK  216  A    between atoms: _542  and  _543
REMARK  217  A    between atoms: _546  and  _548
REMARK  218  A    between atoms: _548  and  _549
REMARK  219  A    between atoms: _548  and  _551
REMARK  220  A    between atoms: _551  and  _552
REMARK  221  A    between atoms: _555  and  _557
REMARK  222  A    between atoms: _557  and  _558
REMARK  223  A    between atoms: _557  and  _560
REMARK  224  A    between atoms: _560  and  _561
REMARK  225  A    between atoms: _563  and  _565
REMARK  226  A    between atoms: _565  and  _566
REMARK  227  A    between atoms: _568  and  _570
REMARK  228  A    between atoms: _570  and  _571
REMARK  229  A    between atoms: _570  and  _573
REMARK  230  A    between atoms: _573  and  _574
REMARK  231  A    between atoms: _577  and  _579
REMARK  232  A    between atoms: _579  and  _580
REMARK  233  A    between atoms: _579  and  _582
REMARK                            x       y       z     vdW  Elec       q    Type
REMARK                         _______ _______ _______ _____ _____    ______ ____
ROOT
ATOM      1  CA  GLY A   5      -8.245  -7.280  10.471  0.00  0.00    +0.176 C 
ENDROOT
BRANCH   1   3
ATOM      2  C   ALA A   4     -10.410  -6.470  11.237  0.00  0.00    +0.241 C 
ATOM      3  N   GLY A   5      -9.166  -6.853  11.509  0.00  0.00    -0.295 N 
ATOM      4  H   GLY A   5      -8.842  -6.846  12.497  0.00  0.00    +0.150 HD
ATOM      5  O   ALA A   4     -10.854  -6.388  10.091  0.00  0.00    -0.273 OA
BRANCH   2   6
ATOM      6  CA  ALA A   4     -11.280  -6.131  12.441  0.00  0.00    +0.149 C 
ATOM      7  CB  ALA A   4     -11.937  -7.395  12.983  0.00  0.00    +0.031 C 
BRANCH   6  10
ATOM      8  C   LEU A   3     -12.803  -4.343  13.061  0.00  0.00    +0.241 C 
ATOM      9  O   LEU A   3     -12.439  -4.387  14.236  0.00  0.00    -0.273 OA
ATOM     10  N   ALA A   4     -12.294  -5.132  12.121  0.00  0.00    -0.297 N 
ATOM     11  H   ALA A   4     -12.624  -5.036  11.140  0.00  0.00    +0.150 HD
BRANCH   8  12
ATOM     12  CA  LEU A   3     -13.880  -3.354  12.615  0.00  0.00    +0.149 C 
BRANCH  12  15
ATOM     13  C   LYS A   2     -12.861  -1.881  10.963  0.00  0.00    +0.241 C 
ATOM     14  O   LYS A   2     -12.174  -1.311  11.810  0.00  0.00    -0.273 OA
ATOM     15  N   LEU A   3     -13.669  -2.896  11.248  0.00  0.00    -0.297 N 
ATOM     16  H   LEU A   3     -14.166  -3.378  10.472  0.00  0.00    +0.150 HD
BRANCH  13  17
ATOM     17  CA  LYS A   2     -12.822  -1.450   9.502  0.00  0.00    +0.149 C 
BRANCH  17  19
ATOM     18  C   GLY A   1     -14.814  -0.085   9.227  0.00  0.00    +0.240 C 
ATOM     19  N   LYS A   2     -13.490  -0.165   9.326  0.00  0.00    -0.297 N 
ATOM     20  H   LYS A   2     -12.921   0.704   9.277  0.00  0.00    +0.150 HD
ATOM     21  O   GLY A   1     -15.548  -1.073   9.263  0.00  0.00    -0.274 OA
BRANCH  18  22
ATOM     22  CA  GLY A   1     -15.397   1.306   9.064  0.00  0.00    +0.169 C 
BRANCH  22  23
ATOM     23  N   GLY A   1     -16.616   1.317   8.275  0.00  0.00    -0.236 NA
ATOM     24  H   GLY A   1     -17.526   1.130   8.742  0.00  0.00    +0.142 HD
ENDBRANCH  22  23
ENDBRANCH  18  22
ENDBRANCH  17  19
BRANCH  17  25
ATOM     25  CB  LYS A   2     -11.377  -1.385   9.005  0.00  0.00    +0.029 C 
BRANCH  25  26
ATOM     26  CG  LYS A   2     -10.653  -2.723   9.057  0.00  0.00    +0.000 C 
BRANCH  26  27
ATOM     27  CD  LYS A   2      -9.337  -2.675   8.300  0.00  0.00    -0.024 C 
BRANCH  27  28
ATOM     28  CE  LYS A   2      -8.643  -4.028   8.320  0.00  0.00    -0.086 C 
BRANCH  28  29
ATOM     29  NZ  LYS A   2      -7.418  -4.034   7.472  0.00  0.00    +0.380 N 
ATOM     30  HZ1 LYS A   2      -6.750  -3.319   7.824  0.00  0.00    -0.089 HD
ATOM     31  HZ2 LYS A   2      -6.974  -4.974   7.513  0.00  0.00    -0.089 HD
ATOM     32  HZ3 LYS A   2      -7.677  -3.814   6.489  0.00  0.00    -0.089 HD
ENDBRANCH  28  29
ENDBRANCH  27  28
ENDBRANCH  26  27
ENDBRANCH  25  26
ENDBRANCH  17  25
ENDBRANCH  13  17
ENDBRANCH  12  15
BRANCH  12  33
ATOM     33  CB  LEU A   3     -15.268  -3.987  12.744  0.00  0.00    +0.029 C 
BRANCH  33  34
ATOM     34  CG  LEU A   3     -15.718  -4.484  14.119  0.00  0.00    +0.002 C 
ATOM     35  CD2 LEU A   3     -15.680  -3.358  15.143  0.00  0.00    +0.000 C 
ATOM     36  CD1 LEU A   3     -17.113  -5.082  14.028  0.00  0.00    +0.000 C 
ENDBRANCH  33  34
ENDBRANCH  12  33
ENDBRANCH   8  12
ENDBRANCH   6  10
ENDBRANCH   2   6
ENDBRANCH   1   3
BRANCH   1  37
ATOM     37  C   GLY A   5      -7.687  -8.659  10.766  0.00  0.00    +0.243 C 
ATOM     38  O   GLY A   5      -7.419  -8.991  11.922  0.00  0.00    -0.273 OA
ATOM     39  N   ILE A   6      -7.514  -9.462   9.718  0.00  0.00    -0.297 N 
ATOM     40  H   ILE A   6      -7.732  -9.102   8.767  0.00  0.00    +0.150 HD
BRANCH  39  41
ATOM     41  CA  ILE A   6      -7.028 -10.831   9.861  0.00  0.00    +0.149 C 
BRANCH  41  42
ATOM     42  C   ILE A   6      -5.718 -11.034   9.102  0.00  0.00    +0.241 C 
ATOM     43  N   LEU A   7      -4.770 -11.729   9.725  0.00  0.00    -0.297 N 
ATOM     44  H   LEU A   7      -4.948 -12.081  10.687  0.00  0.00    +0.150 HD
ATOM     45  O   ILE A   6      -5.574 -10.576   7.969  0.00  0.00    -0.273 OA
BRANCH  43  46
ATOM     46  CA  LEU A   7      -3.485 -12.009   9.090  0.00  0.00    +0.149 C 
BRANCH  46  47
ATOM     47  C   LEU A   7      -3.095 -13.478   9.224  0.00  0.00    +0.241 C 
ATOM     48  O   LEU A   7      -3.043 -14.017  10.330  0.00  0.00    -0.273 OA
ATOM     49  N   ALA A   8      -2.816 -14.117   8.092  0.00  0.00    -0.297 N 
ATOM     50  H   ALA A   8      -2.907 -13.609   7.189  0.00  0.00    +0.150 HD
BRANCH  49  51
ATOM     51  CA  ALA A   8      -2.386 -15.511   8.080  0.00  0.00    +0.149 C 
ATOM     52  CB  ALA A   8      -3.289 -16.338   7.182  0.00  0.00    +0.031 C 
BRANCH  51  53
ATOM     53  C   ALA A   8      -0.937 -15.630   7.624  0.00  0.00    +0.241 C 
ATOM     54  N   GLU A   9      -0.119 -16.307   8.423  0.00  0.00    -0.298 N 
ATOM     55  H   GLU A   9      -0.491 -16.718   9.303  0.00  0.00    +0.150 HD
ATOM     56  O   ALA A   8      -0.566 -15.118   6.569  0.00  0.00    -0.273 OA
BRANCH  54  57
ATOM     57  CA  GLU A   9       1.290 -16.486   8.092  0.00  0.00    +0.137 C 
BRANCH  57  58
ATOM     58  C   GLU A   9       1.682 -17.959   8.172  0.00  0.00    +0.227 C 
ATOM     59  O   GLU A   9       1.245 -18.682   9.066  0.00  0.00    -0.286 OA
ENDBRANCH  57  58
BRANCH  57  60
ATOM     60  CB  GLU A   9       2.170 -15.643   9.017  0.00  0.00    +0.039 C 
BRANCH  60  61
ATOM     61  CG  GLU A   9       1.861 -14.152   8.962  0.00  0.00    +0.116 C 
BRANCH  61  62
ATOM     62  CD  GLU A   9       2.808 -13.320   9.805  0.00  0.00    +0.365 C 
ATOM     63  OE2 GLU A   9       2.376 -12.813  10.863  0.00  0.00    -0.246 OA
ATOM     64  OE1 GLU A   9       3.982 -13.170   9.408  0.00  0.00    -0.246 OA
ENDBRANCH  61  62
ENDBRANCH  60  61
ENDBRANCH  57  60
ENDBRANCH  54  57
ENDBRANCH  51  53
ENDBRANCH  49  51
ENDBRANCH  46  47
BRANCH  46  65
ATOM     65  CB  LEU A   7      -2.387 -11.126   9.688  0.00  0.00    +0.029 C 
BRANCH  65  66
ATOM     66  CG  LEU A   7      -0.974 -11.336   9.138  0.00  0.00    +0.002 C 
ATOM     67  CD2 LEU A   7       0.049 -10.572   9.963  0.00  0.00    +0.000 C 
ATOM     68  CD1 LEU A   7      -0.895 -10.938   7.669  0.00  0.00    +0.000 C 
ENDBRANCH  65  66
ENDBRANCH  46  65
ENDBRANCH  43  46
ENDBRANCH  41  42
BRANCH  41  69
ATOM     69  CB  ILE A   6      -8.063 -11.856   9.348  0.00  0.00    +0.027 C 
ATOM     70  CG2 ILE A   6      -7.683 -13.267   9.774  0.00  0.00    +0.002 C 
BRANCH  69  71
ATOM     71  CG1 ILE A   6      -9.472 -11.491   9.822  0.00  0.00    +0.002 C 
ATOM     72  CD1 ILE A   6      -9.646 -11.530  11.318  0.00  0.00    +0.000 C 
ENDBRANCH  69  71
ENDBRANCH  41  69
ENDBRANCH  39  41
ENDBRANCH   1  37
TORSDOF 32
REMARK  Name = ../refined-set-2016/4xtx/4xtx_pocket.pdb
REMARK  233 active torsions:
REMARK  status: ('A' for Active; 'I' for Inactive)
REMARK    1  A    between atoms: _1  and  _3
REMARK    2  A    between atoms: _3  and  _4
REMARK    3  A    between atoms: _3  and  _6
REMARK    4  A    between atoms: _6  and  _7
REMARK    5  A    between atoms: _10  and  _12
REMARK    6  A    between atoms: _12  and  _13
REMARK    7  A    between atoms: _15  and  _17
REMARK    8  A    between atoms: _17  and  _18
REMARK    9  A    between atoms: _17  and  _20
REMARK   10  A    between atoms: _20  and  _21
REMARK   11  A    between atoms: _23  and  _25
REMARK   12  A    between atoms: _25  and  _26
REMARK   13  A    between atoms: _25  and  _28
REMARK   14  A    between atoms: _28  and  _29
REMARK   15  A    between atoms: _32  and  _34
REMARK   16  A    between atoms: _34  and  _35
REMARK   17  A    between atoms: _34  and  _37
REMARK   18  A    between atoms: _37  and  _38
REMARK   19  A    between atoms: _43  and  _45
REMARK   20  A    between atoms: _45  and  _46
REMARK   21  A    between atoms: _49  and  _51
REMARK   22  A    between atoms: _51  and  _52
REMARK   23  A    between atoms: _51  and  _54
REMARK   24  A    between atoms: _54  and  _55
REMARK   25  A    between atoms: _58  and  _60
REMARK   26  A    between atoms: _60  and  _61
REMARK   27  A    between atoms: _60  and  _63
REMARK   28  A    between atoms: _63  and  _64
REMARK   29  A    between atoms: _67  and  _69
REMARK   30  A    between atoms: _69  and  _70
REMARK   31  A    between atoms: _69  and  _72
REMARK   32  A    between atoms: _72  and  _73
REMARK   33  A    between atoms: _76  and  _78
REMARK   34  A    between atoms: _78  and  _79
REMARK   35  A    between atoms: _82  and  _84
REMARK   36  A    between atoms: _84  and  _85
REMARK   37  A    between atoms: _84  and  _87
REMARK   38  A    between atoms: _87  and  _88
REMARK   39  A    between atoms: _88  and  _89
REMARK   40  A    between atoms: _94  and  _96
REMARK   41  A    between atoms: _96  and  _97
REMARK   42  A    between atoms: _96  and  _99
REMARK   43  A    between atoms: _99  and  _100
REMARK   44  A    between atoms: _103  and  _105
REMARK   45  A    between atoms: _105  and  _106
REMARK   46  A    between atoms: _109  and  _111
REMARK   47  A    between atoms: _111  and  _112
REMARK   48  A    between atoms: _114  and  _116
REMARK   49  A    between atoms: _116  and  _117
REMARK   50  A    between atoms: _116  and  _119
REMARK   51  A    between atoms: _119  and  _120
REMARK   52  A    between atoms: _120  and  _121
REMARK   53  A    between atoms: _121  and  _122
REMARK   54  A    between atoms: _131  and  _133
REMARK   55  A    between atoms: _133  and  _134
REMARK   56  A    between atoms: _136  and  _138
REMARK   57  A    between atoms: _138  and  _139
REMARK   58  A    between atoms: _138  and  _141
REMARK   59  A    between atoms: _141  and  _142
REMARK   60  A    between atoms: _142  and  _143
REMARK   61  A    between atoms: _143  and  _144
REMARK   62  A    between atoms: _153  and  _155
REMARK   63  A    between atoms: _155  and  _156
REMARK   64  A    between atoms: _155  and  _158
REMARK   65  A    between atoms: _158  and  _159
REMARK   66  A    between atoms: _164  and  _166
REMARK   67  A    between atoms: _166  and  _167
REMARK   68  A    between atoms: _169  and  _171
REMARK   69  A    between atoms: _171  and  _172
REMARK   70  A    between atoms: _171  and  _174
REMARK   71  A    between atoms: _174  and  _175
REMARK   72  A    between atoms: _175  and  _176
REMARK   73  A    between atoms: _176  and  _177
REMARK   74  A    between atoms: _186  and  _188
REMARK   75  A    between atoms: _188  and  _189
REMARK   76  A    between atoms: _191  and  _193
REMARK   77  A    between atoms: _193  and  _194
REMARK   78  A    between atoms: _193  and  _196
REMARK   79  A    between atoms: _196  and  _197
REMARK   80  A    between atoms: _207  and  _209
REMARK   81  A    between atoms: _209  and  _210
REMARK   82  A    between atoms: _213  and  _215
REMARK   83  A    between atoms: _215  and  _216
REMARK   84  A    between atoms: _219  and  _221
REMARK   85  A    between atoms: _221  and  _222
REMARK   86  A    between atoms: _221  and  _224
REMARK   87  A    between atoms: _224  and  _225
REMARK   88  A    between atoms: _228  and  _230
REMARK   89  A    between atoms: _230  and  _231
REMARK   90  A    between atoms: _234  and  _236
REMARK   91  A    between atoms: _236  and  _237
REMARK   92  A    between atoms: _236  and  _239
REMARK   93  A    between atoms: _239  and  _240
REMARK   94  A    between atoms: _240  and  _241
REMARK   95  A    between atoms: _246  and  _248
REMARK   96  A    between atoms: _248  and  _249
REMARK   97  A    between atoms: _248  and  _251
REMARK   98  A    between atoms: _251  and  _252
REMARK   99  A    between atoms: _255  and  _257
REMARK  100  A    between atoms: _257  and  _258
REMARK  101  A    between atoms: _257  and  _260
REMARK  102  A    between atoms: _260  and  _261
REMARK  103  A    between atoms: _264  and  _266
REMARK  104  A    between atoms: _266  and  _267
REMARK  105  A    between atoms: _266  and  _269
REMARK  106  A    between atoms: _269  and  _270
REMARK  107  A    between atoms: _273  and  _275
REMARK  108  A    between atoms: _275  and  _276
REMARK  109  A    between atoms: _275  and  _278
REMARK  110  A    between atoms: _278  and  _279
REMARK  111  A    between atoms: _281  and  _283
REMARK  112  A    between atoms: _283  and  _284
REMARK  113  A    between atoms: _283  and  _286
REMARK  114  A    between atoms: _289  and  _291
REMARK  115  A    between atoms: _291  and  _292
REMARK  116  A    between atoms: _291  and  _294
REMARK  117  A    between atoms: _294  and  _295
REMARK  118  A    between atoms: _295  and  _296
REMARK  119  A    between atoms: _296  and  _297
REMARK  120  A    between atoms: _297  and  _298
REMARK  121  A    between atoms: _303  and  _304
REMARK  122  A    between atoms: _309  and  _311
REMARK  123  A    between atoms: _311  and  _312
REMARK  124  A    between atoms: _311  and  _314
REMARK  125  A    between atoms: _314  and  _315
REMARK  126  A    between atoms: _320  and  _322
REMARK  127  A    between atoms: _322  and  _323
REMARK  128  A    between atoms: _322  and  _325
REMARK  129  A    between atoms: _325  and  _326
REMARK  130  A    between atoms: _329  and  _331
REMARK  131  A    between atoms: _331  and  _332
REMARK  132  A    between atoms: _331  and  _334
REMARK  133  A    between atoms: _337  and  _339
REMARK  134  A    between atoms: _339  and  _340
REMARK  135  A    between atoms: _342  and  _344
REMARK  136  A    between atoms: _344  and  _345
REMARK  137  A    between atoms: _344  and  _347
REMARK  138  A    between atoms: _347  and  _348
REMARK  139  A    between atoms: _348  and  _349
REMARK  140  A    between atoms: _349  and  _350
REMARK  141  A    between atoms: _350  and  _351
REMARK  142  A    between atoms: _355  and  _357
REMARK  143  A    between atoms: _357  and  _358
REMARK  144  A    between atoms: _357  and  _360
REMARK  145  A    between atoms: _360  and  _361
REMARK  146  A    between atoms: _364  and  _366
REMARK  147  A    between atoms: _366  and  _367
REMARK  148  A    between atoms: _370  and  _372
REMARK  149  A    between atoms: _372  and  _373
REMARK  150  A    between atoms: _375  and  _377
REMARK  151  A    between atoms: _377  and  _378
REMARK  152  A    between atoms: _377  and  _380
REMARK  153  A    between atoms: _380  and  _381
REMARK  154  A    between atoms: _384  and  _386
REMARK  155  A    between atoms: _386  and  _387
REMARK  156  A    between atoms: _386  and  _389
REMARK  157  A    between atoms: _389  and  _390
REMARK  158  A    between atoms: _393  and  _395
REMARK  159  A    between atoms: _395  and  _396
REMARK  160  A    between atoms: _399  and  _401
REMARK  161  A    between atoms: _401  and  _402
REMARK  162  A    between atoms: _401  and  _404
REMARK  163  A    between atoms: _404  and  _405
REMARK  164  A    between atoms: _405  and  _406
REMARK  165  A    between atoms: _409  and  _411
REMARK  166  A    between atoms: _411  and  _412
REMARK  167  A    between atoms: _411  and  _414
REMARK  168  A    between atoms: _417  and  _419
REMARK  169  A    between atoms: _419  and  _420
REMARK  170  A    between atoms: _419  and  _422
REMARK  171  A    between atoms: _422  and  _423
REMARK  172  A    between atoms: _426  and  _428
REMARK  173  A    between atoms: _428  and  _429
REMARK  174  A    between atoms: _431  and  _433
REMARK  175  A    between atoms: _433  and  _434
REMARK  176  A    between atoms: _433  and  _436
REMARK  177  A    between atoms: _439  and  _441
REMARK  178  A    between atoms: _441  and  _442
REMARK  179  A    between atoms: _444  and  _446
REMARK  180  A    between atoms: _446  and  _447
REMARK  181  A    between atoms: _446  and  _449
REMARK  182  A    between atoms: _449  and  _450
REMARK  183  A    between atoms: _453  and  _455
REMARK  184  A    between atoms: _455  and  _456
REMARK  185  A    between atoms: _455  and  _458
REMARK  186  A    between atoms: _458  and  _459
REMARK  187  A    between atoms: _464  and  _466
REMARK  188  A    between atoms: _466  and  _467
REMARK  189  A    between atoms: _466  and  _469
REMARK  190  A    between atoms: _472  and  _474
REMARK  191  A    between atoms: _474  and  _475
REMARK  192  A    between atoms: _474  and  _477
REMARK  193  A    between atoms: _477  and  _478
REMARK  194  A    between atoms: _478  and  _479
REMARK  195  A    between atoms: _484  and  _486
REMARK  196  A    between atoms: _486  and  _487
REMARK  197  A    between atoms: _491  and  _492
REMARK  198  A    between atoms: _497  and  _499
REMARK  199  A    between atoms: _499  and  _500
REMARK  200  A    between atoms: _499  and  _502
REMARK  201  A    between atoms: _502  and  _503
REMARK  202  A    between atoms: _503  and  _504
REMARK  203  A    between atoms: _507  and  _509
REMARK  204  A    between atoms: _509  and  _510
REMARK  205  A    between atoms: _509  and  _512
REMARK  206  A    between atoms: _515  and  _517
REMARK  207  A    between atoms: _517  and  _518
REMARK  208  A    between atoms: _517  and  _520
REMARK  209  A    between atoms: _520  and  _521
REMARK  210  A    between atoms: _525  and  _526
REMARK  211  A    between atoms: _531  and  _533
REMARK  212  A    between atoms: _533  and  _534
REMARK  213  A    between atoms: _533  and  _536
REMARK  214  A    between atoms: _536  and  _537
REMARK  215  A    between atoms: _540  and  _542
REMARK  216  A    between atoms: _542  and  _543
REMARK  217  A    between atoms: _546  and  _548
REMARK  218  A    between atoms: _548  and  _549
REMARK  219  A    between atoms: _548  and  _551
REMARK  220  A    between atoms: _551  and  _552
REMARK  221  A    between atoms: _555  and  _557
REMARK  222  A    between atoms: _557  and  _558
REMARK  223  A    between atoms: _557  and  _560
REMARK  224  A    between atoms: _560  and  _561
REMARK  225  A    between atoms: _563  and  _565
REMARK  226  A    between atoms: _565  and  _566
REMARK  227  A    between atoms: _568  and  _570
REMARK  228  A    between atoms: _570  and  _571
REMARK  229  A    between atoms: _570  and  _573
REMARK  230  A    between atoms: _573  and  _574
REMARK  231  A    between atoms: _577  and  _579
REMARK  232  A    between atoms: _579  and  _580
REMARK  233  A    between atoms: _579  and  _582
REMARK                            x       y       z     vdW  Elec       q    Type
REMARK                         _______ _______ _______ _____ _____    ______ ____
ROOT
ATOM      1  C   VAL A   4      -6.911 -10.288  15.526  0.00  0.00    +0.241 C 
ATOM      2  O   VAL A   4      -6.617 -10.388  16.717  0.00  0.00    -0.273 OA
ATOM      3  N   GLY A   5      -7.119  -9.120  14.928  0.00  0.00    -0.295 N 
ATOM      4  H   GLY A   5      -7.254  -9.097  13.897  0.00  0.00    +0.150 HD
ENDROOT
BRANCH   3   5
ATOM      5  CA  GLY A   5      -7.163  -7.876  15.673  0.00  0.00    +0.176 C 
BRANCH   5   6
ATOM      6  C   GLY A   5      -8.561  -7.297  15.591  0.00  0.00    +0.243 C 
ATOM      7  N   LEU A   6      -9.256  -7.244  16.724  0.00  0.00    -0.297 N 
ATOM      8  H   LEU A   6      -8.800  -7.533  17.613  0.00  0.00    +0.150 HD
ATOM      9  O   GLY A   5      -9.008  -6.911  14.514  0.00  0.00    -0.273 OA
BRANCH   7  10
ATOM     10  CA  LEU A   6     -10.644  -6.790  16.751  0.00  0.00    +0.149 C 
BRANCH  10  11
ATOM     11  C   LEU A   6     -10.839  -5.571  17.650  0.00  0.00    +0.241 C 
ATOM     12  O   LEU A   6     -10.654  -5.650  18.864  0.00  0.00    -0.273 OA
ATOM     13  N   ASN A   7     -11.224  -4.448  17.049  0.00  0.00    -0.297 N 
ATOM     14  H   ASN A   7     -11.383  -4.453  16.021  0.00  0.00    +0.150 HD
BRANCH  13  15
ATOM     15  CA  ASN A   7     -11.429  -3.209  17.795  0.00  0.00    +0.158 C 
BRANCH  15  16
ATOM     16  C   ASN A   7     -12.682  -3.253  18.661  0.00  0.00    +0.241 C 
ATOM     17  N   VAL A   8     -12.488  -3.363  19.970  0.00  0.00    -0.298 N 
ATOM     18  H   VAL A   8     -11.516  -3.396  20.338  0.00  0.00    +0.150 HD
ATOM     19  O   ASN A   7     -13.803  -3.179  18.155  0.00  0.00    -0.273 OA
BRANCH  17  20
ATOM     20  CA  VAL A   8     -13.605  -3.439  20.904  0.00  0.00    +0.137 C 
BRANCH  20  21
ATOM     21  CB  VAL A   8     -13.266  -4.336  22.106  0.00  0.00    +0.026 C 
ATOM     22  CG2 VAL A   8     -14.453  -4.430  23.046  0.00  0.00    +0.002 C 
ATOM     23  CG1 VAL A   8     -12.851  -5.719  21.628  0.00  0.00    +0.002 C 
ENDBRANCH  20  21
BRANCH  20  24
ATOM     24  C   VAL A   8     -14.000  -2.050  21.401  0.00  0.00    +0.227 C 
ATOM     25  O   VAL A   8     -15.137  -1.614  21.216  0.00  0.00    -0.286 OA
ENDBRANCH  20  24
ENDBRANCH  17  20
ENDBRANCH  15  16
BRANCH  15  26
ATOM     26  CB  ASN A   7     -11.510  -2.017  16.839  0.00  0.00    +0.114 C 
BRANCH  26  27
ATOM     27  CG  ASN A   7     -10.234  -1.814  16.049  0.00  0.00    +0.222 C 
ATOM     28  OD1 ASN A   7      -9.131  -1.988  16.569  0.00  0.00    -0.275 OA
ATOM     29  ND2 ASN A   7     -10.377  -1.445  14.782  0.00  0.00    -0.329 N 
ATOM     30 HD21 ASN A   7     -11.328  -1.310  14.384  0.00  0.00    +0.145 HD
ATOM     31 HD22 ASN A   7      -9.538  -1.291  14.187  0.00  0.00    +0.145 HD
ENDBRANCH  26  27
ENDBRANCH  15  26
ENDBRANCH  13  15
ENDBRANCH  10  11
BRANCH  10  32
ATOM     32  CB  LEU A   6     -11.560  -7.929  17.212  0.00  0.00    +0.029 C 
BRANCH  32  33
ATOM     33  CG  LEU A   6     -13.025  -7.586  17.490  0.00  0.00    +0.002 C 
ATOM     34  CD2 LEU A   6     -13.768  -8.808  18.015  0.00  0.00    +0.000 C 
ATOM     35  CD1 LEU A   6     -13.702  -7.039  16.244  0.00  0.00    +0.000 C 
ENDBRANCH  32  33
ENDBRANCH  10  32
ENDBRANCH   7  10
ENDBRANCH   5   6
ENDBRANCH   3   5
BRANCH   1  36
ATOM     36  CA  VAL A   4      -7.055 -11.527  14.647  0.00  0.00    +0.149 C 
BRANCH  36  38
ATOM     37  C   GLY A   3      -5.267 -12.742  13.528  0.00  0.00    +0.243 C 
ATOM     38  N   VAL A   4      -5.845 -12.340  14.655  0.00  0.00    -0.297 N 
ATOM     39  H   VAL A   4      -5.423 -12.612  15.566  0.00  0.00    +0.150 HD
ATOM     40  O   GLY A   3      -5.701 -12.451  12.414  0.00  0.00    -0.273 OA
BRANCH  37  41
ATOM     41  CA  GLY A   3      -4.021 -13.593  13.681  0.00  0.00    +0.176 C 
BRANCH  41  44
ATOM     42  C   LEU A   2      -4.086 -15.982  13.253  0.00  0.00    +0.241 C 
ATOM     43  O   LEU A   2      -4.298 -16.238  14.437  0.00  0.00    -0.273 OA
ATOM     44  N   GLY A   3      -3.970 -14.740  12.792  0.00  0.00    -0.295 N 
ATOM     45  H   GLY A   3      -3.840 -14.587  11.772  0.00  0.00    +0.150 HD
BRANCH  42  46
ATOM     46  CA  LEU A   2      -3.941 -17.107  12.234  0.00  0.00    +0.149 C 
BRANCH  46  48
ATOM     47  C   VAL A   1      -1.650 -17.866  11.895  0.00  0.00    +0.238 C 
ATOM     48  N   LEU A   2      -2.797 -17.947  12.557  0.00  0.00    -0.297 N 
ATOM     49  H   LEU A   2      -2.882 -18.634  13.333  0.00  0.00    +0.150 HD
ATOM     50  O   VAL A   1      -1.434 -17.028  11.019  0.00  0.00    -0.274 OA
BRANCH  47  51
ATOM     51  CA  VAL A   1      -0.592 -18.891  12.281  0.00  0.00    +0.145 C 
BRANCH  51  52
ATOM     52  CB  VAL A   1       0.639 -18.173  12.860  0.00  0.00    +0.025 C 
ATOM     53  CG2 VAL A   1       0.218 -17.181  13.935  0.00  0.00    +0.002 C 
ATOM     54  CG1 VAL A   1       1.623 -19.188  13.422  0.00  0.00    +0.002 C 
ENDBRANCH  51  52
BRANCH  51  55
ATOM     55  N   VAL A   1      -0.250 -19.711  11.128  0.00  0.00    -0.238 NA
ATOM     56  H   VAL A   1       0.513 -19.405  10.492  0.00  0.00    +0.142 HD
ENDBRANCH  51  55
ENDBRANCH  47  51
ENDBRANCH  46  48
BRANCH  46  57
ATOM     57  CB  LEU A   2      -5.211 -17.956  12.189  0.00  0.00    +0.029 C 
BRANCH  57  58
ATOM     58  CG  LEU A   2      -6.297 -17.585  11.184  0.00  0.00    +0.002 C 
ATOM     59  CD2 LEU A   2      -7.306 -18.717  11.094  0.00  0.00    +0.000 C 
ATOM     60  CD1 LEU A   2      -5.685 -17.308   9.824  0.00  0.00    +0.000 C 
ENDBRANCH  57  58
ENDBRANCH  46  57
ENDBRANCH  42  46
ENDBRANCH  41  44
ENDBRANCH  37  41
ENDBRANCH  36  38
BRANCH  36  61
ATOM     61  CB  VAL A   4      -8.281 -12.331  15.128  0.00  0.00    +0.027 C 
ATOM     62  CG2 VAL A   4      -9.501 -11.428  15.227  0.00  0.00    +0.002 C 
ATOM     63  CG1 VAL A   4      -8.551 -13.504  14.200  0.00  0.00    +0.002 C 
ENDBRANCH  36  61
ENDBRANCH   1  36
TORSDOF 25
REMARK  Name = ../refined-set-2016/4xtx/4xtx_pocket.pdb
REMARK  233 active torsions:
REMARK  status: ('A' for Active; 'I' for Inactive)
REMARK    1  A    between atoms: _1  and  _3
REMARK    2  A    between atoms: _3  and  _4
REMARK    3  A    between atoms: _3  and  _6
REMARK    4  A    between atoms: _6  and  _7
REMARK    5  A    between atoms: _10  and  _12
REMARK    6  A    between atoms: _12  and  _13
REMARK    7  A    between atoms: _15  and  _17
REMARK    8  A    between atoms: _17  and  _18
REMARK    9  A    between atoms: _17  and  _20
REMARK   10  A    between atoms: _20  and  _21
REMARK   11  A    between atoms: _23  and  _25
REMARK   12  A    between atoms: _25  and  _26
REMARK   13  A    between atoms: _25  and  _28
REMARK   14  A    between atoms: _28  and  _29
REMARK   15  A    between atoms: _32  and  _34
REMARK   16  A    between atoms: _34  and  _35
REMARK   17  A    between atoms: _34  and  _37
REMARK   18  A    between atoms: _37  and  _38
REMARK   19  A    between atoms: _43  and  _45
REMARK   20  A    between atoms: _45  and  _46
REMARK   21  A    between atoms: _49  and  _51
REMARK   22  A    between atoms: _51  and  _52
REMARK   23  A    between atoms: _51  and  _54
REMARK   24  A    between atoms: _54  and  _55
REMARK   25  A    between atoms: _58  and  _60
REMARK   26  A    between atoms: _60  and  _61
REMARK   27  A    between atoms: _60  and  _63
REMARK   28  A    between atoms: _63  and  _64
REMARK   29  A    between atoms: _67  and  _69
REMARK   30  A    between atoms: _69  and  _70
REMARK   31  A    between atoms: _69  and  _72
REMARK   32  A    between atoms: _72  and  _73
REMARK   33  A    between atoms: _76  and  _78
REMARK   34  A    between atoms: _78  and  _79
REMARK   35  A    between atoms: _82  and  _84
REMARK   36  A    between atoms: _84  and  _85
REMARK   37  A    between atoms: _84  and  _87
REMARK   38  A    between atoms: _87  and  _88
REMARK   39  A    between atoms: _88  and  _89
REMARK   40  A    between atoms: _94  and  _96
REMARK   41  A    between atoms: _96  and  _97
REMARK   42  A    between atoms: _96  and  _99
REMARK   43  A    between atoms: _99  and  _100
REMARK   44  A    between atoms: _103  and  _105
REMARK   45  A    between atoms: _105  and  _106
REMARK   46  A    between atoms: _109  and  _111
REMARK   47  A    between atoms: _111  and  _112
REMARK   48  A    between atoms: _114  and  _116
REMARK   49  A    between atoms: _116  and  _117
REMARK   50  A    between atoms: _116  and  _119
REMARK   51  A    between atoms: _119  and  _120
REMARK   52  A    between atoms: _120  and  _121
REMARK   53  A    between atoms: _121  and  _122
REMARK   54  A    between atoms: _131  and  _133
REMARK   55  A    between atoms: _133  and  _134
REMARK   56  A    between atoms: _136  and  _138
REMARK   57  A    between atoms: _138  and  _139
REMARK   58  A    between atoms: _138  and  _141
REMARK   59  A    between atoms: _141  and  _142
REMARK   60  A    between atoms: _142  and  _143
REMARK   61  A    between atoms: _143  and  _144
REMARK   62  A    between atoms: _153  and  _155
REMARK   63  A    between atoms: _155  and  _156
REMARK   64  A    between atoms: _155  and  _158
REMARK   65  A    between atoms: _158  and  _159
REMARK   66  A    between atoms: _164  and  _166
REMARK   67  A    between atoms: _166  and  _167
REMARK   68  A    between atoms: _169  and  _171
REMARK   69  A    between atoms: _171  and  _172
REMARK   70  A    between atoms: _171  and  _174
REMARK   71  A    between atoms: _174  and  _175
REMARK   72  A    between atoms: _175  and  _176
REMARK   73  A    between atoms: _176  and  _177
REMARK   74  A    between atoms: _186  and  _188
REMARK   75  A    between atoms: _188  and  _189
REMARK   76  A    between atoms: _191  and  _193
REMARK   77  A    between atoms: _193  and  _194
REMARK   78  A    between atoms: _193  and  _196
REMARK   79  A    between atoms: _196  and  _197
REMARK   80  A    between atoms: _207  and  _209
REMARK   81  A    between atoms: _209  and  _210
REMARK   82  A    between atoms: _213  and  _215
REMARK   83  A    between atoms: _215  and  _216
REMARK   84  A    between atoms: _219  and  _221
REMARK   85  A    between atoms: _221  and  _222
REMARK   86  A    between atoms: _221  and  _224
REMARK   87  A    between atoms: _224  and  _225
REMARK   88  A    between atoms: _228  and  _230
REMARK   89  A    between atoms: _230  and  _231
REMARK   90  A    between atoms: _234  and  _236
REMARK   91  A    between atoms: _236  and  _237
REMARK   92  A    between atoms: _236  and  _239
REMARK   93  A    between atoms: _239  and  _240
REMARK   94  A    between atoms: _240  and  _241
REMARK   95  A    between atoms: _246  and  _248
REMARK   96  A    between atoms: _248  and  _249
REMARK   97  A    between atoms: _248  and  _251
REMARK   98  A    between atoms: _251  and  _252
REMARK   99  A    between atoms: _255  and  _257
REMARK  100  A    between atoms: _257  and  _258
REMARK  101  A    between atoms: _257  and  _260
REMARK  102  A    between atoms: _260  and  _261
REMARK  103  A    between atoms: _264  and  _266
REMARK  104  A    between atoms: _266  and  _267
REMARK  105  A    between atoms: _266  and  _269
REMARK  106  A    between atoms: _269  and  _270
REMARK  107  A    between atoms: _273  and  _275
REMARK  108  A    between atoms: _275  and  _276
REMARK  109  A    between atoms: _275  and  _278
REMARK  110  A    between atoms: _278  and  _279
REMARK  111  A    between atoms: _281  and  _283
REMARK  112  A    between atoms: _283  and  _284
REMARK  113  A    between atoms: _283  and  _286
REMARK  114  A    between atoms: _289  and  _291
REMARK  115  A    between atoms: _291  and  _292
REMARK  116  A    between atoms: _291  and  _294
REMARK  117  A    between atoms: _294  and  _295
REMARK  118  A    between atoms: _295  and  _296
REMARK  119  A    between atoms: _296  and  _297
REMARK  120  A    between atoms: _297  and  _298
REMARK  121  A    between atoms: _303  and  _304
REMARK  122  A    between atoms: _309  and  _311
REMARK  123  A    between atoms: _311  and  _312
REMARK  124  A    between atoms: _311  and  _314
REMARK  125  A    between atoms: _314  and  _315
REMARK  126  A    between atoms: _320  and  _322
REMARK  127  A    between atoms: _322  and  _323
REMARK  128  A    between atoms: _322  and  _325
REMARK  129  A    between atoms: _325  and  _326
REMARK  130  A    between atoms: _329  and  _331
REMARK  131  A    between atoms: _331  and  _332
REMARK  132  A    between atoms: _331  and  _334
REMARK  133  A    between atoms: _337  and  _339
REMARK  134  A    between atoms: _339  and  _340
REMARK  135  A    between atoms: _342  and  _344
REMARK  136  A    between atoms: _344  and  _345
REMARK  137  A    between atoms: _344  and  _347
REMARK  138  A    between atoms: _347  and  _348
REMARK  139  A    between atoms: _348  and  _349
REMARK  140  A    between atoms: _349  and  _350
REMARK  141  A    between atoms: _350  and  _351
REMARK  142  A    between atoms: _355  and  _357
REMARK  143  A    between atoms: _357  and  _358
REMARK  144  A    between atoms: _357  and  _360
REMARK  145  A    between atoms: _360  and  _361
REMARK  146  A    between atoms: _364  and  _366
REMARK  147  A    between atoms: _366  and  _367
REMARK  148  A    between atoms: _370  and  _372
REMARK  149  A    between atoms: _372  and  _373
REMARK  150  A    between atoms: _375  and  _377
REMARK  151  A    between atoms: _377  and  _378
REMARK  152  A    between atoms: _377  and  _380
REMARK  153  A    between atoms: _380  and  _381
REMARK  154  A    between atoms: _384  and  _386
REMARK  155  A    between atoms: _386  and  _387
REMARK  156  A    between atoms: _386  and  _389
REMARK  157  A    between atoms: _389  and  _390
REMARK  158  A    between atoms: _393  and  _395
REMARK  159  A    between atoms: _395  and  _396
REMARK  160  A    between atoms: _399  and  _401
REMARK  161  A    between atoms: _401  and  _402
REMARK  162  A    between atoms: _401  and  _404
REMARK  163  A    between atoms: _404  and  _405
REMARK  164  A    between atoms: _405  and  _406
REMARK  165  A    between atoms: _409  and  _411
REMARK  166  A    between atoms: _411  and  _412
REMARK  167  A    between atoms: _411  and  _414
REMARK  168  A    between atoms: _417  and  _419
REMARK  169  A    between atoms: _419  and  _420
REMARK  170  A    between atoms: _419  and  _422
REMARK  171  A    between atoms: _422  and  _423
REMARK  172  A    between atoms: _426  and  _428
REMARK  173  A    between atoms: _428  and  _429
REMARK  174  A    between atoms: _431  and  _433
REMARK  175  A    between atoms: _433  and  _434
REMARK  176  A    between atoms: _433  and  _436
REMARK  177  A    between atoms: _439  and  _441
REMARK  178  A    between atoms: _441  and  _442
REMARK  179  A    between atoms: _444  and  _446
REMARK  180  A    between atoms: _446  and  _447
REMARK  181  A    between atoms: _446  and  _449
REMARK  182  A    between atoms: _449  and  _450
REMARK  183  A    between atoms: _453  and  _455
REMARK  184  A    between atoms: _455  and  _456
REMARK  185  A    between atoms: _455  and  _458
REMARK  186  A    between atoms: _458  and  _459
REMARK  187  A    between atoms: _464  and  _466
REMARK  188  A    between atoms: _466  and  _467
REMARK  189  A    between atoms: _466  and  _469
REMARK  190  A    between atoms: _472  and  _474
REMARK  191  A    between atoms: _474  and  _475
REMARK  192  A    between atoms: _474  and  _477
REMARK  193  A    between atoms: _477  and  _478
REMARK  194  A    between atoms: _478  and  _479
REMARK  195  A    between atoms: _484  and  _486
REMARK  196  A    between atoms: _486  and  _487
REMARK  197  A    between atoms: _491  and  _492
REMARK  198  A    between atoms: _497  and  _499
REMARK  199  A    between atoms: _499  and  _500
REMARK  200  A    between atoms: _499  and  _502
REMARK  201  A    between atoms: _502  and  _503
REMARK  202  A    between atoms: _503  and  _504
REMARK  203  A    between atoms: _507  and  _509
REMARK  204  A    between atoms: _509  and  _510
REMARK  205  A    between atoms: _509  and  _512
REMARK  206  A    between atoms: _515  and  _517
REMARK  207  A    between atoms: _517  and  _518
REMARK  208  A    between atoms: _517  and  _520
REMARK  209  A    between atoms: _520  and  _521
REMARK  210  A    between atoms: _525  and  _526
REMARK  211  A    between atoms: _531  and  _533
REMARK  212  A    between atoms: _533  and  _534
REMARK  213  A    between atoms: _533  and  _536
REMARK  214  A    between atoms: _536  and  _537
REMARK  215  A    between atoms: _540  and  _542
REMARK  216  A    between atoms: _542  and  _543
REMARK  217  A    between atoms: _546  and  _548
REMARK  218  A    between atoms: _548  and  _549
REMARK  219  A    between atoms: _548  and  _551
REMARK  220  A    between atoms: _551  and  _552
REMARK  221  A    between atoms: _555  and  _557
REMARK  222  A    between atoms: _557  and  _558
REMARK  223  A    between atoms: _557  and  _560
REMARK  224  A    between atoms: _560  and  _561
REMARK  225  A    between atoms: _563  and  _565
REMARK  226  A    between atoms: _565  and  _566
REMARK  227  A    between atoms: _568  and  _570
REMARK  228  A    between atoms: _570  and  _571
REMARK  229  A    between atoms: _570  and  _573
REMARK  230  A    between atoms: _573  and  _574
REMARK  231  A    between atoms: _577  and  _579
REMARK  232  A    between atoms: _579  and  _580
REMARK  233  A    between atoms: _579  and  _582
REMARK                            x       y       z     vdW  Elec       q    Type
REMARK                         _______ _______ _______ _____ _____    ______ ____
ROOT
ATOM      1  C   GLN A   1     -10.925   2.447  19.549  0.00  0.00    +0.238 C 
ATOM      2  N   ALA A   2     -10.325   3.578  19.905  0.00  0.00    -0.297 N 
ATOM      3  H   ALA A   2      -9.596   3.556  20.647  0.00  0.00    +0.150 HD
ATOM      4  O   GLN A   1     -11.829   2.406  18.713  0.00  0.00    -0.274 OA
ENDROOT
BRANCH   2   5
ATOM      5  CA  ALA A   2     -10.667   4.849  19.277  0.00  0.00    +0.149 C 
ATOM      6  CB  ALA A   2     -10.287   6.011  20.181  0.00  0.00    +0.031 C 
BRANCH   5   7
ATOM      7  C   ALA A   2      -9.979   4.975  17.922  0.00  0.00    +0.244 C 
ATOM      8  O   ALA A   2      -8.761   4.821  17.827  0.00  0.00    -0.273 OA
ATOM      9  N   PRO A   3     -10.765   5.245  16.866  0.00  0.00    -0.273 N 
ATOM     10  CD  PRO A   3     -12.230   5.394  16.929  0.00  0.00    +0.094 C 
ATOM     11  CG  PRO A   3     -12.646   5.315  15.488  0.00  0.00    +0.024 C 
ATOM     12  CB  PRO A   3     -11.493   5.839  14.712  0.00  0.00    +0.030 C 
ATOM     13  CA  PRO A   3     -10.262   5.367  15.491  0.00  0.00    +0.140 C 
BRANCH  13  14
ATOM     14  C   PRO A   3      -9.123   6.373  15.360  0.00  0.00    +0.227 C 
ATOM     15  O   PRO A   3      -8.192   6.154  14.585  0.00  0.00    -0.286 OA
ENDBRANCH  13  14
ENDBRANCH   5   7
ENDBRANCH   2   5
BRANCH   1  16
ATOM     16  CA  GLN A   1     -10.437   1.173  20.235  0.00  0.00    +0.145 C 
BRANCH  16  17
ATOM     17  N   GLN A   1     -11.525   0.435  20.866  0.00  0.00    -0.238 NA
ATOM     18  H   GLN A   1     -11.762  -0.513  20.509  0.00  0.00    +0.142 HD
ENDBRANCH  16  17
BRANCH  16  19
ATOM     19  CB  GLN A   1      -9.718   0.280  19.222  0.00  0.00    +0.036 C 
BRANCH  19  20
ATOM     20  CG  GLN A   1      -8.459   0.892  18.629  0.00  0.00    +0.087 C 
BRANCH  20  21
ATOM     21  CD  GLN A   1      -7.298   0.894  19.603  0.00  0.00    +0.219 C 
ATOM     22  NE2 GLN A   1      -7.139   1.992  20.333  0.00  0.00    -0.329 N 
ATOM     23 HE21 GLN A   1      -6.359   2.052  21.019  0.00  0.00    +0.145 HD
ATOM     24 HE22 GLN A   1      -7.794   2.792  20.219  0.00  0.00    +0.145 HD
ATOM     25  OE1 GLN A   1      -6.551  -0.081  19.699  0.00  0.00    -0.275 OA
ENDBRANCH  20  21
ENDBRANCH  19  20
ENDBRANCH  16  19
ENDBRANCH   1  16
TORSDOF 8
REMARK  Name = ../refined-set-2016/4xtx/4xtx_pocket.pdb
REMARK  233 active torsions:
REMARK  status: ('A' for Active; 'I' for Inactive)
REMARK    1  A    between atoms: _1  and  _3
REMARK    2  A    between atoms: _3  and  _4
REMARK    3  A    between atoms: _3  and  _6
REMARK    4  A    between atoms: _6  and  _7
REMARK    5  A    between atoms: _10  and  _12
REMARK    6  A    between atoms: _12  and  _13
REMARK    7  A    between atoms: _15  and  _17
REMARK    8  A    between atoms: _17  and  _18
REMARK    9  A    between atoms: _17  and  _20
REMARK   10  A    between atoms: _20  and  _21
REMARK   11  A    between atoms: _23  and  _25
REMARK   12  A    between atoms: _25  and  _26
REMARK   13  A    between atoms: _25  and  _28
REMARK   14  A    between atoms: _28  and  _29
REMARK   15  A    between atoms: _32  and  _34
REMARK   16  A    between atoms: _34  and  _35
REMARK   17  A    between atoms: _34  and  _37
REMARK   18  A    between atoms: _37  and  _38
REMARK   19  A    between atoms: _43  and  _45
REMARK   20  A    between atoms: _45  and  _46
REMARK   21  A    between atoms: _49  and  _51
REMARK   22  A    between atoms: _51  and  _52
REMARK   23  A    between atoms: _51  and  _54
REMARK   24  A    between atoms: _54  and  _55
REMARK   25  A    between atoms: _58  and  _60
REMARK   26  A    between atoms: _60  and  _61
REMARK   27  A    between atoms: _60  and  _63
REMARK   28  A    between atoms: _63  and  _64
REMARK   29  A    between atoms: _67  and  _69
REMARK   30  A    between atoms: _69  and  _70
REMARK   31  A    between atoms: _69  and  _72
REMARK   32  A    between atoms: _72  and  _73
REMARK   33  A    between atoms: _76  and  _78
REMARK   34  A    between atoms: _78  and  _79
REMARK   35  A    between atoms: _82  and  _84
REMARK   36  A    between atoms: _84  and  _85
REMARK   37  A    between atoms: _84  and  _87
REMARK   38  A    between atoms: _87  and  _88
REMARK   39  A    between atoms: _88  and  _89
REMARK   40  A    between atoms: _94  and  _96
REMARK   41  A    between atoms: _96  and  _97
REMARK   42  A    between atoms: _96  and  _99
REMARK   43  A    between atoms: _99  and  _100
REMARK   44  A    between atoms: _103  and  _105
REMARK   45  A    between atoms: _105  and  _106
REMARK   46  A    between atoms: _109  and  _111
REMARK   47  A    between atoms: _111  and  _112
REMARK   48  A    between atoms: _114  and  _116
REMARK   49  A    between atoms: _116  and  _117
REMARK   50  A    between atoms: _116  and  _119
REMARK   51  A    between atoms: _119  and  _120
REMARK   52  A    between atoms: _120  and  _121
REMARK   53  A    between atoms: _121  and  _122
REMARK   54  A    between atoms: _131  and  _133
REMARK   55  A    between atoms: _133  and  _134
REMARK   56  A    between atoms: _136  and  _138
REMARK   57  A    between atoms: _138  and  _139
REMARK   58  A    between atoms: _138  and  _141
REMARK   59  A    between atoms: _141  and  _142
REMARK   60  A    between atoms: _142  and  _143
REMARK   61  A    between atoms: _143  and  _144
REMARK   62  A    between atoms: _153  and  _155
REMARK   63  A    between atoms: _155  and  _156
REMARK   64  A    between atoms: _155  and  _158
REMARK   65  A    between atoms: _158  and  _159
REMARK   66  A    between atoms: _164  and  _166
REMARK   67  A    between atoms: _166  and  _167
REMARK   68  A    between atoms: _169  and  _171
REMARK   69  A    between atoms: _171  and  _172
REMARK   70  A    between atoms: _171  and  _174
REMARK   71  A    between atoms: _174  and  _175
REMARK   72  A    between atoms: _175  and  _176
REMARK   73  A    between atoms: _176  and  _177
REMARK   74  A    between atoms: _186  and  _188
REMARK   75  A    between atoms: _188  and  _189
REMARK   76  A    between atoms: _191  and  _193
REMARK   77  A    between atoms: _193  and  _194
REMARK   78  A    between atoms: _193  and  _196
REMARK   79  A    between atoms: _196  and  _197
REMARK   80  A    between atoms: _207  and  _209
REMARK   81  A    between atoms: _209  and  _210
REMARK   82  A    between atoms: _213  and  _215
REMARK   83  A    between atoms: _215  and  _216
REMARK   84  A    between atoms: _219  and  _221
REMARK   85  A    between atoms: _221  and  _222
REMARK   86  A    between atoms: _221  and  _224
REMARK   87  A    between atoms: _224  and  _225
REMARK   88  A    between atoms: _228  and  _230
REMARK   89  A    between atoms: _230  and  _231
REMARK   90  A    between atoms: _234  and  _236
REMARK   91  A    between atoms: _236  and  _237
REMARK   92  A    between atoms: _236  and  _239
REMARK   93  A    between atoms: _239  and  _240
REMARK   94  A    between atoms: _240  and  _241
REMARK   95  A    between atoms: _246  and  _248
REMARK   96  A    between atoms: _248  and  _249
REMARK   97  A    between atoms: _248  and  _251
REMARK   98  A    between atoms: _251  and  _252
REMARK   99  A    between atoms: _255  and  _257
REMARK  100  A    between atoms: _257  and  _258
REMARK  101  A    between atoms: _257  and  _260
REMARK  102  A    between atoms: _260  and  _261
REMARK  103  A    between atoms: _264  and  _266
REMARK  104  A    between atoms: _266  and  _267
REMARK  105  A    between atoms: _266  and  _269
REMARK  106  A    between atoms: _269  and  _270
REMARK  107  A    between atoms: _273  and  _275
REMARK  108  A    between atoms: _275  and  _276
REMARK  109  A    between atoms: _275  and  _278
REMARK  110  A    between atoms: _278  and  _279
REMARK  111  A    between atoms: _281  and  _283
REMARK  112  A    between atoms: _283  and  _284
REMARK  113  A    between atoms: _283  and  _286
REMARK  114  A    between atoms: _289  and  _291
REMARK  115  A    between atoms: _291  and  _292
REMARK  116  A    between atoms: _291  and  _294
REMARK  117  A    between atoms: _294  and  _295
REMARK  118  A    between atoms: _295  and  _296
REMARK  119  A    between atoms: _296  and  _297
REMARK  120  A    between atoms: _297  and  _298
REMARK  121  A    between atoms: _303  and  _304
REMARK  122  A    between atoms: _309  and  _311
REMARK  123  A    between atoms: _311  and  _312
REMARK  124  A    between atoms: _311  and  _314
REMARK  125  A    between atoms: _314  and  _315
REMARK  126  A    between atoms: _320  and  _322
REMARK  127  A    between atoms: _322  and  _323
REMARK  128  A    between atoms: _322  and  _325
REMARK  129  A    between atoms: _325  and  _326
REMARK  130  A    between atoms: _329  and  _331
REMARK  131  A    between atoms: _331  and  _332
REMARK  132  A    between atoms: _331  and  _334
REMARK  133  A    between atoms: _337  and  _339
REMARK  134  A    between atoms: _339  and  _340
REMARK  135  A    between atoms: _342  and  _344
REMARK  136  A    between atoms: _344  and  _345
REMARK  137  A    between atoms: _344  and  _347
REMARK  138  A    between atoms: _347  and  _348
REMARK  139  A    between atoms: _348  and  _349
REMARK  140  A    between atoms: _349  and  _350
REMARK  141  A    between atoms: _350  and  _351
REMARK  142  A    between atoms: _355  and  _357
REMARK  143  A    between atoms: _357  and  _358
REMARK  144  A    between atoms: _357  and  _360
REMARK  145  A    between atoms: _360  and  _361
REMARK  146  A    between atoms: _364  and  _366
REMARK  147  A    between atoms: _366  and  _367
REMARK  148  A    between atoms: _370  and  _372
REMARK  149  A    between atoms: _372  and  _373
REMARK  150  A    between atoms: _375  and  _377
REMARK  151  A    between atoms: _377  and  _378
REMARK  152  A    between atoms: _377  and  _380
REMARK  153  A    between atoms: _380  and  _381
REMARK  154  A    between atoms: _384  and  _386
REMARK  155  A    between atoms: _386  and  _387
REMARK  156  A    between atoms: _386  and  _389
REMARK  157  A    between atoms: _389  and  _390
REMARK  158  A    between atoms: _393  and  _395
REMARK  159  A    between atoms: _395  and  _396
REMARK  160  A    between atoms: _399  and  _401
REMARK  161  A    between atoms: _401  and  _402
REMARK  162  A    between atoms: _401  and  _404
REMARK  163  A    between atoms: _404  and  _405
REMARK  164  A    between atoms: _405  and  _406
REMARK  165  A    between atoms: _409  and  _411
REMARK  166  A    between atoms: _411  and  _412
REMARK  167  A    between atoms: _411  and  _414
REMARK  168  A    between atoms: _417  and  _419
REMARK  169  A    between atoms: _419  and  _420
REMARK  170  A    between atoms: _419  and  _422
REMARK  171  A    between atoms: _422  and  _423
REMARK  172  A    between atoms: _426  and  _428
REMARK  173  A    between atoms: _428  and  _429
REMARK  174  A    between atoms: _431  and  _433
REMARK  175  A    between atoms: _433  and  _434
REMARK  176  A    between atoms: _433  and  _436
REMARK  177  A    between atoms: _439  and  _441
REMARK  178  A    between atoms: _441  and  _442
REMARK  179  A    between atoms: _444  and  _446
REMARK  180  A    between atoms: _446  and  _447
REMARK  181  A    between atoms: _446  and  _449
REMARK  182  A    between atoms: _449  and  _450
REMARK  183  A    between atoms: _453  and  _455
REMARK  184  A    between atoms: _455  and  _456
REMARK  185  A    between atoms: _455  and  _458
REMARK  186  A    between atoms: _458  and  _459
REMARK  187  A    between atoms: _464  and  _466
REMARK  188  A    between atoms: _466  and  _467
REMARK  189  A    between atoms: _466  and  _469
REMARK  190  A    between atoms: _472  and  _474
REMARK  191  A    between atoms: _474  and  _475
REMARK  192  A    between atoms: _474  and  _477
REMARK  193  A    between atoms: _477  and  _478
REMARK  194  A    between atoms: _478  and  _479
REMARK  195  A    between atoms: _484  and  _486
REMARK  196  A    between atoms: _486  and  _487
REMARK  197  A    between atoms: _491  and  _492
REMARK  198  A    between atoms: _497  and  _499
REMARK  199  A    between atoms: _499  and  _500
REMARK  200  A    between atoms: _499  and  _502
REMARK  201  A    between atoms: _502  and  _503
REMARK  202  A    between atoms: _503  and  _504
REMARK  203  A    between atoms: _507  and  _509
REMARK  204  A    between atoms: _509  and  _510
REMARK  205  A    between atoms: _509  and  _512
REMARK  206  A    between atoms: _515  and  _517
REMARK  207  A    between atoms: _517  and  _518
REMARK  208  A    between atoms: _517  and  _520
REMARK  209  A    between atoms: _520  and  _521
REMARK  210  A    between atoms: _525  and  _526
REMARK  211  A    between atoms: _531  and  _533
REMARK  212  A    between atoms: _533  and  _534
REMARK  213  A    between atoms: _533  and  _536
REMARK  214  A    between atoms: _536  and  _537
REMARK  215  A    between atoms: _540  and  _542
REMARK  216  A    between atoms: _542  and  _543
REMARK  217  A    between atoms: _546  and  _548
REMARK  218  A    between atoms: _548  and  _549
REMARK  219  A    between atoms: _548  and  _551
REMARK  220  A    between atoms: _551  and  _552
REMARK  221  A    between atoms: _555  and  _557
REMARK  222  A    between atoms: _557  and  _558
REMARK  223  A    between atoms: _557  and  _560
REMARK  224  A    between atoms: _560  and  _561
REMARK  225  A    between atoms: _563  and  _565
REMARK  226  A    between atoms: _565  and  _566
REMARK  227  A    between atoms: _568  and  _570
REMARK  228  A    between atoms: _570  and  _571
REMARK  229  A    between atoms: _570  and  _573
REMARK  230  A    between atoms: _573  and  _574
REMARK  231  A    between atoms: _577  and  _579
REMARK  232  A    between atoms: _579  and  _580
REMARK  233  A    between atoms: _579  and  _582
REMARK                            x       y       z     vdW  Elec       q    Type
REMARK                         _______ _______ _______ _____ _____    ______ ____
ROOT
ATOM      1  C   PRO A   4     -10.433   6.354   9.730  0.00  0.00    +0.241 C 
ATOM      2  O   PRO A   4     -11.599   6.653   9.988  0.00  0.00    -0.273 OA
ATOM      3  N   ASP A   5     -10.100   5.284   9.014  0.00  0.00    -0.297 N 
ATOM      4  H   ASP A   5      -9.094   5.077   8.849  0.00  0.00    +0.150 HD
ENDROOT
BRANCH   1   8
ATOM      5  C   ASP A   3      -8.031   5.518  11.475  0.00  0.00    +0.244 C 
ATOM      6  O   ASP A   3      -9.021   5.201  12.131  0.00  0.00    -0.273 OA
ATOM      7  N   PRO A   4      -8.063   6.482  10.541  0.00  0.00    -0.272 N 
ATOM      8  CA  PRO A   4      -9.293   7.232  10.251  0.00  0.00    +0.152 C 
ATOM      9  CB  PRO A   4      -8.848   8.235   9.178  0.00  0.00    +0.031 C 
ATOM     10  CG  PRO A   4      -7.599   7.656   8.597  0.00  0.00    +0.024 C 
ATOM     11  CD  PRO A   4      -6.927   6.958   9.735  0.00  0.00    +0.094 C 
BRANCH   5  12
ATOM     12  CA  ASP A   3      -6.697   4.805  11.697  0.00  0.00    +0.160 C 
BRANCH  12  14
ATOM     13  C   VAL A   2      -5.276   4.108  13.559  0.00  0.00    +0.241 C 
ATOM     14  N   ASP A   3      -6.437   4.590  13.120  0.00  0.00    -0.297 N 
ATOM     15  H   ASP A   3      -7.181   4.820  13.809  0.00  0.00    +0.150 HD
ATOM     16  O   VAL A   2      -4.310   3.921  12.819  0.00  0.00    -0.273 OA
BRANCH  13  17
ATOM     17  CA  VAL A   2      -5.164   3.799  15.057  0.00  0.00    +0.148 C 
BRANCH  17  20
ATOM     18  C   GLU A   1      -4.936   5.312  16.940  0.00  0.00    +0.238 C 
ATOM     19  O   GLU A   1      -3.808   4.885  17.184  0.00  0.00    -0.274 OA
ATOM     20  N   VAL A   2      -5.662   4.872  15.916  0.00  0.00    -0.297 N 
ATOM     21  H   VAL A   2      -6.593   5.295  15.725  0.00  0.00    +0.150 HD
BRANCH  18  22
ATOM     22  CA  GLU A   1      -5.560   6.389  17.825  0.00  0.00    +0.145 C 
BRANCH  22  23
ATOM     23  N   GLU A   1      -6.803   6.918  17.274  0.00  0.00    -0.238 NA
ATOM     24  H   GLU A   1      -7.696   6.418  17.461  0.00  0.00    +0.142 HD
ENDBRANCH  22  23
BRANCH  22  25
ATOM     25  CB  GLU A   1      -5.800   5.828  19.230  0.00  0.00    +0.038 C 
BRANCH  25  26
ATOM     26  CG  GLU A   1      -6.260   6.866  20.243  0.00  0.00    +0.116 C 
BRANCH  26  27
ATOM     27  CD  GLU A   1      -6.357   6.309  21.652  0.00  0.00    +0.365 C 
ATOM     28  OE2 GLU A   1      -6.356   7.110  22.612  0.00  0.00    -0.246 OA
ATOM     29  OE1 GLU A   1      -6.433   5.071  21.802  0.00  0.00    -0.246 OA
ENDBRANCH  26  27
ENDBRANCH  25  26
ENDBRANCH  22  25
ENDBRANCH  18  22
ENDBRANCH  17  20
BRANCH  17  30
ATOM     30  CB  VAL A   2      -5.891   2.456  15.354  0.00  0.00    +0.027 C 
ATOM     31  CG2 VAL A   2      -5.419   1.877  16.681  0.00  0.00    +0.002 C 
ATOM     32  CG1 VAL A   2      -7.407   2.629  15.355  0.00  0.00    +0.002 C 
ENDBRANCH  17  30
ENDBRANCH  13  17
ENDBRANCH  12  14
BRANCH  12  33
ATOM     33  CB  ASP A   3      -6.692   3.469  10.946  0.00  0.00    +0.143 C 
BRANCH  33  34
ATOM     34  CG  ASP A   3      -6.552   3.641   9.449  0.00  0.00    +0.367 C 
ATOM     35  OD2 ASP A   3      -5.404   3.656   8.958  0.00  0.00    -0.246 OA
ATOM     36  OD1 ASP A   3      -7.588   3.766   8.763  0.00  0.00    -0.246 OA
ENDBRANCH  33  34
ENDBRANCH  12  33
ENDBRANCH   5  12
ENDBRANCH   1   8
BRANCH   3  37
ATOM     37  CA  ASP A   5     -11.113   4.393   8.454  0.00  0.00    +0.160 C 
BRANCH  37  38
ATOM     38  C   ASP A   5     -11.524   3.294   9.432  0.00  0.00    +0.241 C 
ATOM     39  N   ALA A   6     -11.038   3.385  10.666  0.00  0.00    -0.297 N 
ATOM     40  H   ALA A   6     -10.452   4.205  10.922  0.00  0.00    +0.150 HD
ATOM     41  O   ASP A   5     -12.271   2.383   9.073  0.00  0.00    -0.273 OA
BRANCH  39  42
ATOM     42  CA  ALA A   6     -11.308   2.361  11.670  0.00  0.00    +0.149 C 
ATOM     43  CB  ALA A   6     -10.163   2.286  12.664  0.00  0.00    +0.031 C 
BRANCH  42  44
ATOM     44  C   ALA A   6     -12.620   2.603  12.407  0.00  0.00    +0.241 C 
ATOM     45  N   THR A   7     -13.146   1.542  13.010  0.00  0.00    -0.295 N 
ATOM     46  H   THR A   7     -12.711   0.610  12.856  0.00  0.00    +0.150 HD
ATOM     47  O   ALA A   6     -13.140   3.717  12.430  0.00  0.00    -0.273 OA
BRANCH  45  48
ATOM     48  CA  THR A   7     -14.311   1.641  13.879  0.00  0.00    +0.176 C 
BRANCH  48  49
ATOM     49  C   THR A   7     -14.220   0.575  14.966  0.00  0.00    +0.243 C 
ATOM     50  N   SER A   8     -15.020   0.726  16.014  0.00  0.00    -0.296 N 
ATOM     51  H   SER A   8     -15.646   1.555  16.061  0.00  0.00    +0.150 HD
ATOM     52  O   THR A   7     -13.429  -0.360  14.860  0.00  0.00    -0.273 OA
BRANCH  50  53
ATOM     53  CA  SER A   8     -15.041  -0.245  17.101  0.00  0.00    +0.166 C 
BRANCH  53  54
ATOM     54  CB  SER A   8     -16.472  -0.543  17.515  0.00  0.00    +0.229 C 
ATOM     55  OG  SER A   8     -17.400   0.137  17.086  0.00  0.00    -0.286 OA
ENDBRANCH  53  54
BRANCH  53  56
ATOM     56  C   SER A   8     -14.244   0.264  18.303  0.00  0.00    +0.165 C 
BRANCH  56  57
ATOM     57  O   SER A   8     -14.861   1.405  18.877  0.00  0.00    -0.380 OA
ATOM     58  H   SER A   8     -14.912   2.126  18.201  0.00  0.00    +0.211 HD
ENDBRANCH  56  57
ENDBRANCH  53  56
ENDBRANCH  50  53
ENDBRANCH  48  49
BRANCH  48  59
ATOM     59  CB  THR A   7     -15.632   1.479  13.099  0.00  0.00    +0.137 C 
ATOM     60  CG2 THR A   7     -15.793   0.049  12.603  0.00  0.00    +0.034 C 
BRANCH  59  61
ATOM     61  OG1 THR A   7     -16.737   1.816  13.948  0.00  0.00    -0.382 OA
ATOM     62  HG1 THR A   7     -17.583   1.711  13.444  0.00  0.00    +0.210 HD
ENDBRANCH  59  61
ENDBRANCH  48  59
ENDBRANCH  45  48
ENDBRANCH  42  44
ENDBRANCH  39  42
ENDBRANCH  37  38
BRANCH  37  63
ATOM     63  CB  ASP A   5     -10.606   3.762   7.155  0.00  0.00    +0.143 C 
BRANCH  63  64
ATOM     64  CG  ASP A   5     -10.511   4.761   6.020  0.00  0.00    +0.367 C 
ATOM     65  OD2 ASP A   5     -11.442   5.580   5.868  0.00  0.00    -0.246 OA
ATOM     66  OD1 ASP A   5      -9.505   4.728   5.279  0.00  0.00    -0.246 OA
ENDBRANCH  63  64
ENDBRANCH  37  63
ENDBRANCH   3  37
TORSDOF 27
REMARK  Name = ../refined-set-2016/4xtx/4xtx_pocket.pdb
REMARK  233 active torsions:
REMARK  status: ('A' for Active; 'I' for Inactive)
REMARK    1  A    between atoms: _1  and  _3
REMARK    2  A    between atoms: _3  and  _4
REMARK    3  A    between atoms: _3  and  _6
REMARK    4  A    between atoms: _6  and  _7
REMARK    5  A    between atoms: _10  and  _12
REMARK    6  A    between atoms: _12  and  _13
REMARK    7  A    between atoms: _15  and  _17
REMARK    8  A    between atoms: _17  and  _18
REMARK    9  A    between atoms: _17  and  _20
REMARK   10  A    between atoms: _20  and  _21
REMARK   11  A    between atoms: _23  and  _25
REMARK   12  A    between atoms: _25  and  _26
REMARK   13  A    between atoms: _25  and  _28
REMARK   14  A    between atoms: _28  and  _29
REMARK   15  A    between atoms: _32  and  _34
REMARK   16  A    between atoms: _34  and  _35
REMARK   17  A    between atoms: _34  and  _37
REMARK   18  A    between atoms: _37  and  _38
REMARK   19  A    between atoms: _43  and  _45
REMARK   20  A    between atoms: _45  and  _46
REMARK   21  A    between atoms: _49  and  _51
REMARK   22  A    between atoms: _51  and  _52
REMARK   23  A    between atoms: _51  and  _54
REMARK   24  A    between atoms: _54  and  _55
REMARK   25  A    between atoms: _58  and  _60
REMARK   26  A    between atoms: _60  and  _61
REMARK   27  A    between atoms: _60  and  _63
REMARK   28  A    between atoms: _63  and  _64
REMARK   29  A    between atoms: _67  and  _69
REMARK   30  A    between atoms: _69  and  _70
REMARK   31  A    between atoms: _69  and  _72
REMARK   32  A    between atoms: _72  and  _73
REMARK   33  A    between atoms: _76  and  _78
REMARK   34  A    between atoms: _78  and  _79
REMARK   35  A    between atoms: _82  and  _84
REMARK   36  A    between atoms: _84  and  _85
REMARK   37  A    between atoms: _84  and  _87
REMARK   38  A    between atoms: _87  and  _88
REMARK   39  A    between atoms: _88  and  _89
REMARK   40  A    between atoms: _94  and  _96
REMARK   41  A    between atoms: _96  and  _97
REMARK   42  A    between atoms: _96  and  _99
REMARK   43  A    between atoms: _99  and  _100
REMARK   44  A    between atoms: _103  and  _105
REMARK   45  A    between atoms: _105  and  _106
REMARK   46  A    between atoms: _109  and  _111
REMARK   47  A    between atoms: _111  and  _112
REMARK   48  A    between atoms: _114  and  _116
REMARK   49  A    between atoms: _116  and  _117
REMARK   50  A    between atoms: _116  and  _119
REMARK   51  A    between atoms: _119  and  _120
REMARK   52  A    between atoms: _120  and  _121
REMARK   53  A    between atoms: _121  and  _122
REMARK   54  A    between atoms: _131  and  _133
REMARK   55  A    between atoms: _133  and  _134
REMARK   56  A    between atoms: _136  and  _138
REMARK   57  A    between atoms: _138  and  _139
REMARK   58  A    between atoms: _138  and  _141
REMARK   59  A    between atoms: _141  and  _142
REMARK   60  A    between atoms: _142  and  _143
REMARK   61  A    between atoms: _143  and  _144
REMARK   62  A    between atoms: _153  and  _155
REMARK   63  A    between atoms: _155  and  _156
REMARK   64  A    between atoms: _155  and  _158
REMARK   65  A    between atoms: _158  and  _159
REMARK   66  A    between atoms: _164  and  _166
REMARK   67  A    between atoms: _166  and  _167
REMARK   68  A    between atoms: _169  and  _171
REMARK   69  A    between atoms: _171  and  _172
REMARK   70  A    between atoms: _171  and  _174
REMARK   71  A    between atoms: _174  and  _175
REMARK   72  A    between atoms: _175  and  _176
REMARK   73  A    between atoms: _176  and  _177
REMARK   74  A    between atoms: _186  and  _188
REMARK   75  A    between atoms: _188  and  _189
REMARK   76  A    between atoms: _191  and  _193
REMARK   77  A    between atoms: _193  and  _194
REMARK   78  A    between atoms: _193  and  _196
REMARK   79  A    between atoms: _196  and  _197
REMARK   80  A    between atoms: _207  and  _209
REMARK   81  A    between atoms: _209  and  _210
REMARK   82  A    between atoms: _213  and  _215
REMARK   83  A    between atoms: _215  and  _216
REMARK   84  A    between atoms: _219  and  _221
REMARK   85  A    between atoms: _221  and  _222
REMARK   86  A    between atoms: _221  and  _224
REMARK   87  A    between atoms: _224  and  _225
REMARK   88  A    between atoms: _228  and  _230
REMARK   89  A    between atoms: _230  and  _231
REMARK   90  A    between atoms: _234  and  _236
REMARK   91  A    between atoms: _236  and  _237
REMARK   92  A    between atoms: _236  and  _239
REMARK   93  A    between atoms: _239  and  _240
REMARK   94  A    between atoms: _240  and  _241
REMARK   95  A    between atoms: _246  and  _248
REMARK   96  A    between atoms: _248  and  _249
REMARK   97  A    between atoms: _248  and  _251
REMARK   98  A    between atoms: _251  and  _252
REMARK   99  A    between atoms: _255  and  _257
REMARK  100  A    between atoms: _257  and  _258
REMARK  101  A    between atoms: _257  and  _260
REMARK  102  A    between atoms: _260  and  _261
REMARK  103  A    between atoms: _264  and  _266
REMARK  104  A    between atoms: _266  and  _267
REMARK  105  A    between atoms: _266  and  _269
REMARK  106  A    between atoms: _269  and  _270
REMARK  107  A    between atoms: _273  and  _275
REMARK  108  A    between atoms: _275  and  _276
REMARK  109  A    between atoms: _275  and  _278
REMARK  110  A    between atoms: _278  and  _279
REMARK  111  A    between atoms: _281  and  _283
REMARK  112  A    between atoms: _283  and  _284
REMARK  113  A    between atoms: _283  and  _286
REMARK  114  A    between atoms: _289  and  _291
REMARK  115  A    between atoms: _291  and  _292
REMARK  116  A    between atoms: _291  and  _294
REMARK  117  A    between atoms: _294  and  _295
REMARK  118  A    between atoms: _295  and  _296
REMARK  119  A    between atoms: _296  and  _297
REMARK  120  A    between atoms: _297  and  _298
REMARK  121  A    between atoms: _303  and  _304
REMARK  122  A    between atoms: _309  and  _311
REMARK  123  A    between atoms: _311  and  _312
REMARK  124  A    between atoms: _311  and  _314
REMARK  125  A    between atoms: _314  and  _315
REMARK  126  A    between atoms: _320  and  _322
REMARK  127  A    between atoms: _322  and  _323
REMARK  128  A    between atoms: _322  and  _325
REMARK  129  A    between atoms: _325  and  _326
REMARK  130  A    between atoms: _329  and  _331
REMARK  131  A    between atoms: _331  and  _332
REMARK  132  A    between atoms: _331  and  _334
REMARK  133  A    between atoms: _337  and  _339
REMARK  134  A    between atoms: _339  and  _340
REMARK  135  A    between atoms: _342  and  _344
REMARK  136  A    between atoms: _344  and  _345
REMARK  137  A    between atoms: _344  and  _347
REMARK  138  A    between atoms: _347  and  _348
REMARK  139  A    between atoms: _348  and  _349
REMARK  140  A    between atoms: _349  and  _350
REMARK  141  A    between atoms: _350  and  _351
REMARK  142  A    between atoms: _355  and  _357
REMARK  143  A    between atoms: _357  and  _358
REMARK  144  A    between atoms: _357  and  _360
REMARK  145  A    between atoms: _360  and  _361
REMARK  146  A    between atoms: _364  and  _366
REMARK  147  A    between atoms: _366  and  _367
REMARK  148  A    between atoms: _370  and  _372
REMARK  149  A    between atoms: _372  and  _373
REMARK  150  A    between atoms: _375  and  _377
REMARK  151  A    between atoms: _377  and  _378
REMARK  152  A    between atoms: _377  and  _380
REMARK  153  A    between atoms: _380  and  _381
REMARK  154  A    between atoms: _384  and  _386
REMARK  155  A    between atoms: _386  and  _387
REMARK  156  A    between atoms: _386  and  _389
REMARK  157  A    between atoms: _389  and  _390
REMARK  158  A    between atoms: _393  and  _395
REMARK  159  A    between atoms: _395  and  _396
REMARK  160  A    between atoms: _399  and  _401
REMARK  161  A    between atoms: _401  and  _402
REMARK  162  A    between atoms: _401  and  _404
REMARK  163  A    between atoms: _404  and  _405
REMARK  164  A    between atoms: _405  and  _406
REMARK  165  A    between atoms: _409  and  _411
REMARK  166  A    between atoms: _411  and  _412
REMARK  167  A    between atoms: _411  and  _414
REMARK  168  A    between atoms: _417  and  _419
REMARK  169  A    between atoms: _419  and  _420
REMARK  170  A    between atoms: _419  and  _422
REMARK  171  A    between atoms: _422  and  _423
REMARK  172  A    between atoms: _426  and  _428
REMARK  173  A    between atoms: _428  and  _429
REMARK  174  A    between atoms: _431  and  _433
REMARK  175  A    between atoms: _433  and  _434
REMARK  176  A    between atoms: _433  and  _436
REMARK  177  A    between atoms: _439  and  _441
REMARK  178  A    between atoms: _441  and  _442
REMARK  179  A    between atoms: _444  and  _446
REMARK  180  A    between atoms: _446  and  _447
REMARK  181  A    between atoms: _446  and  _449
REMARK  182  A    between atoms: _449  and  _450
REMARK  183  A    between atoms: _453  and  _455
REMARK  184  A    between atoms: _455  and  _456
REMARK  185  A    between atoms: _455  and  _458
REMARK  186  A    between atoms: _458  and  _459
REMARK  187  A    between atoms: _464  and  _466
REMARK  188  A    between atoms: _466  and  _467
REMARK  189  A    between atoms: _466  and  _469
REMARK  190  A    between atoms: _472  and  _474
REMARK  191  A    between atoms: _474  and  _475
REMARK  192  A    between atoms: _474  and  _477
REMARK  193  A    between atoms: _477  and  _478
REMARK  194  A    between atoms: _478  and  _479
REMARK  195  A    between atoms: _484  and  _486
REMARK  196  A    between atoms: _486  and  _487
REMARK  197  A    between atoms: _491  and  _492
REMARK  198  A    between atoms: _497  and  _499
REMARK  199  A    between atoms: _499  and  _500
REMARK  200  A    between atoms: _499  and  _502
REMARK  201  A    between atoms: _502  and  _503
REMARK  202  A    between atoms: _503  and  _504
REMARK  203  A    between atoms: _507  and  _509
REMARK  204  A    between atoms: _509  and  _510
REMARK  205  A    between atoms: _509  and  _512
REMARK  206  A    between atoms: _515  and  _517
REMARK  207  A    between atoms: _517  and  _518
REMARK  208  A    between atoms: _517  and  _520
REMARK  209  A    between atoms: _520  and  _521
REMARK  210  A    between atoms: _525  and  _526
REMARK  211  A    between atoms: _531  and  _533
REMARK  212  A    between atoms: _533  and  _534
REMARK  213  A    between atoms: _533  and  _536
REMARK  214  A    between atoms: _536  and  _537
REMARK  215  A    between atoms: _540  and  _542
REMARK  216  A    between atoms: _542  and  _543
REMARK  217  A    between atoms: _546  and  _548
REMARK  218  A    between atoms: _548  and  _549
REMARK  219  A    between atoms: _548  and  _551
REMARK  220  A    between atoms: _551  and  _552
REMARK  221  A    between atoms: _555  and  _557
REMARK  222  A    between atoms: _557  and  _558
REMARK  223  A    between atoms: _557  and  _560
REMARK  224  A    between atoms: _560  and  _561
REMARK  225  A    between atoms: _563  and  _565
REMARK  226  A    between atoms: _565  and  _566
REMARK  227  A    between atoms: _568  and  _570
REMARK  228  A    between atoms: _570  and  _571
REMARK  229  A    between atoms: _570  and  _573
REMARK  230  A    between atoms: _573  and  _574
REMARK  231  A    between atoms: _577  and  _579
REMARK  232  A    between atoms: _579  and  _580
REMARK  233  A    between atoms: _579  and  _582
REMARK                            x       y       z     vdW  Elec       q    Type
REMARK                         _______ _______ _______ _____ _____    ______ ____
ROOT
ATOM      1  CA  ASP A   2      -6.436  -4.272  -1.239  0.00  0.00    +0.160 C 
ENDROOT
BRANCH   1   4
ATOM      2  C   GLY A   1      -5.566  -6.421  -1.987  0.00  0.00    +0.240 C 
ATOM      3  O   GLY A   1      -6.211  -7.041  -1.142  0.00  0.00    -0.274 OA
ATOM      4  N   ASP A   2      -5.601  -5.098  -2.102  0.00  0.00    -0.297 N 
ATOM      5  H   ASP A   2      -5.016  -4.638  -2.829  0.00  0.00    +0.150 HD
BRANCH   2   6
ATOM      6  CA  GLY A   1      -4.670  -7.149  -2.969  0.00  0.00    +0.169 C 
BRANCH   6   7
ATOM      7  N   GLY A   1      -4.563  -8.569  -2.694  0.00  0.00    -0.236 NA
ATOM      8  H   GLY A   1      -4.830  -8.928  -1.755  0.00  0.00    +0.142 HD
ENDBRANCH   6   7
ENDBRANCH   2   6
ENDBRANCH   1   4
BRANCH   1   9
ATOM      9  C   ASP A   2      -7.660  -3.773  -1.994  0.00  0.00    +0.241 C 
ATOM     10  N   VAL A   3      -8.838  -4.121  -1.492  0.00  0.00    -0.298 N 
ATOM     11  H   VAL A   3      -8.871  -4.661  -0.604  0.00  0.00    +0.150 HD
ATOM     12  O   ASP A   2      -7.541  -3.087  -3.009  0.00  0.00    -0.273 OA
BRANCH  10  13
ATOM     13  CA  VAL A   3     -10.085  -3.765  -2.154  0.00  0.00    +0.137 C 
BRANCH  13  14
ATOM     14  CB  VAL A   3     -11.148  -4.866  -1.966  0.00  0.00    +0.026 C 
ATOM     15  CG2 VAL A   3     -12.490  -4.420  -2.525  0.00  0.00    +0.002 C 
ATOM     16  CG1 VAL A   3     -10.691  -6.158  -2.628  0.00  0.00    +0.002 C 
ENDBRANCH  13  14
BRANCH  13  17
ATOM     17  C   VAL A   3     -10.645  -2.441  -1.645  0.00  0.00    +0.227 C 
ATOM     18  O   VAL A   3     -10.715  -2.204  -0.438  0.00  0.00    -0.286 OA
ENDBRANCH  13  17
ENDBRANCH  10  13
ENDBRANCH   1   9
BRANCH   1  19
ATOM     19  CB  ASP A   2      -5.635  -3.092  -0.687  0.00  0.00    +0.143 C 
BRANCH  19  20
ATOM     20  CG  ASP A   2      -4.453  -3.535   0.151  0.00  0.00    +0.367 C 
ATOM     21  OD2 ASP A   2      -4.594  -4.522   0.905  0.00  0.00    -0.246 OA
ATOM     22  OD1 ASP A   2      -3.381  -2.901   0.053  0.00  0.00    -0.246 OA
ENDBRANCH  19  20
ENDBRANCH   1  19
TORSDOF 9
REMARK  Name = ../refined-set-2016/4xtx/4xtx_pocket.pdb
REMARK  233 active torsions:
REMARK  status: ('A' for Active; 'I' for Inactive)
REMARK    1  A    between atoms: _1  and  _3
REMARK    2  A    between atoms: _3  and  _4
REMARK    3  A    between atoms: _3  and  _6
REMARK    4  A    between atoms: _6  and  _7
REMARK    5  A    between atoms: _10  and  _12
REMARK    6  A    between atoms: _12  and  _13
REMARK    7  A    between atoms: _15  and  _17
REMARK    8  A    between atoms: _17  and  _18
REMARK    9  A    between atoms: _17  and  _20
REMARK   10  A    between atoms: _20  and  _21
REMARK   11  A    between atoms: _23  and  _25
REMARK   12  A    between atoms: _25  and  _26
REMARK   13  A    between atoms: _25  and  _28
REMARK   14  A    between atoms: _28  and  _29
REMARK   15  A    between atoms: _32  and  _34
REMARK   16  A    between atoms: _34  and  _35
REMARK   17  A    between atoms: _34  and  _37
REMARK   18  A    between atoms: _37  and  _38
REMARK   19  A    between atoms: _43  and  _45
REMARK   20  A    between atoms: _45  and  _46
REMARK   21  A    between atoms: _49  and  _51
REMARK   22  A    between atoms: _51  and  _52
REMARK   23  A    between atoms: _51  and  _54
REMARK   24  A    between atoms: _54  and  _55
REMARK   25  A    between atoms: _58  and  _60
REMARK   26  A    between atoms: _60  and  _61
REMARK   27  A    between atoms: _60  and  _63
REMARK   28  A    between atoms: _63  and  _64
REMARK   29  A    between atoms: _67  and  _69
REMARK   30  A    between atoms: _69  and  _70
REMARK   31  A    between atoms: _69  and  _72
REMARK   32  A    between atoms: _72  and  _73
REMARK   33  A    between atoms: _76  and  _78
REMARK   34  A    between atoms: _78  and  _79
REMARK   35  A    between atoms: _82  and  _84
REMARK   36  A    between atoms: _84  and  _85
REMARK   37  A    between atoms: _84  and  _87
REMARK   38  A    between atoms: _87  and  _88
REMARK   39  A    between atoms: _88  and  _89
REMARK   40  A    between atoms: _94  and  _96
REMARK   41  A    between atoms: _96  and  _97
REMARK   42  A    between atoms: _96  and  _99
REMARK   43  A    between atoms: _99  and  _100
REMARK   44  A    between atoms: _103  and  _105
REMARK   45  A    between atoms: _105  and  _106
REMARK   46  A    between atoms: _109  and  _111
REMARK   47  A    between atoms: _111  and  _112
REMARK   48  A    between atoms: _114  and  _116
REMARK   49  A    between atoms: _116  and  _117
REMARK   50  A    between atoms: _116  and  _119
REMARK   51  A    between atoms: _119  and  _120
REMARK   52  A    between atoms: _120  and  _121
REMARK   53  A    between atoms: _121  and  _122
REMARK   54  A    between atoms: _131  and  _133
REMARK   55  A    between atoms: _133  and  _134
REMARK   56  A    between atoms: _136  and  _138
REMARK   57  A    between atoms: _138  and  _139
REMARK   58  A    between atoms: _138  and  _141
REMARK   59  A    between atoms: _141  and  _142
REMARK   60  A    between atoms: _142  and  _143
REMARK   61  A    between atoms: _143  and  _144
REMARK   62  A    between atoms: _153  and  _155
REMARK   63  A    between atoms: _155  and  _156
REMARK   64  A    between atoms: _155  and  _158
REMARK   65  A    between atoms: _158  and  _159
REMARK   66  A    between atoms: _164  and  _166
REMARK   67  A    between atoms: _166  and  _167
REMARK   68  A    between atoms: _169  and  _171
REMARK   69  A    between atoms: _171  and  _172
REMARK   70  A    between atoms: _171  and  _174
REMARK   71  A    between atoms: _174  and  _175
REMARK   72  A    between atoms: _175  and  _176
REMARK   73  A    between atoms: _176  and  _177
REMARK   74  A    between atoms: _186  and  _188
REMARK   75  A    between atoms: _188  and  _189
REMARK   76  A    between atoms: _191  and  _193
REMARK   77  A    between atoms: _193  and  _194
REMARK   78  A    between atoms: _193  and  _196
REMARK   79  A    between atoms: _196  and  _197
REMARK   80  A    between atoms: _207  and  _209
REMARK   81  A    between atoms: _209  and  _210
REMARK   82  A    between atoms: _213  and  _215
REMARK   83  A    between atoms: _215  and  _216
REMARK   84  A    between atoms: _219  and  _221
REMARK   85  A    between atoms: _221  and  _222
REMARK   86  A    between atoms: _221  and  _224
REMARK   87  A    between atoms: _224  and  _225
REMARK   88  A    between atoms: _228  and  _230
REMARK   89  A    between atoms: _230  and  _231
REMARK   90  A    between atoms: _234  and  _236
REMARK   91  A    between atoms: _236  and  _237
REMARK   92  A    between atoms: _236  and  _239
REMARK   93  A    between atoms: _239  and  _240
REMARK   94  A    between atoms: _240  and  _241
REMARK   95  A    between atoms: _246  and  _248
REMARK   96  A    between atoms: _248  and  _249
REMARK   97  A    between atoms: _248  and  _251
REMARK   98  A    between atoms: _251  and  _252
REMARK   99  A    between atoms: _255  and  _257
REMARK  100  A    between atoms: _257  and  _258
REMARK  101  A    between atoms: _257  and  _260
REMARK  102  A    between atoms: _260  and  _261
REMARK  103  A    between atoms: _264  and  _266
REMARK  104  A    between atoms: _266  and  _267
REMARK  105  A    between atoms: _266  and  _269
REMARK  106  A    between atoms: _269  and  _270
REMARK  107  A    between atoms: _273  and  _275
REMARK  108  A    between atoms: _275  and  _276
REMARK  109  A    between atoms: _275  and  _278
REMARK  110  A    between atoms: _278  and  _279
REMARK  111  A    between atoms: _281  and  _283
REMARK  112  A    between atoms: _283  and  _284
REMARK  113  A    between atoms: _283  and  _286
REMARK  114  A    between atoms: _289  and  _291
REMARK  115  A    between atoms: _291  and  _292
REMARK  116  A    between atoms: _291  and  _294
REMARK  117  A    between atoms: _294  and  _295
REMARK  118  A    between atoms: _295  and  _296
REMARK  119  A    between atoms: _296  and  _297
REMARK  120  A    between atoms: _297  and  _298
REMARK  121  A    between atoms: _303  and  _304
REMARK  122  A    between atoms: _309  and  _311
REMARK  123  A    between atoms: _311  and  _312
REMARK  124  A    between atoms: _311  and  _314
REMARK  125  A    between atoms: _314  and  _315
REMARK  126  A    between atoms: _320  and  _322
REMARK  127  A    between atoms: _322  and  _323
REMARK  128  A    between atoms: _322  and  _325
REMARK  129  A    between atoms: _325  and  _326
REMARK  130  A    between atoms: _329  and  _331
REMARK  131  A    between atoms: _331  and  _332
REMARK  132  A    between atoms: _331  and  _334
REMARK  133  A    between atoms: _337  and  _339
REMARK  134  A    between atoms: _339  and  _340
REMARK  135  A    between atoms: _342  and  _344
REMARK  136  A    between atoms: _344  and  _345
REMARK  137  A    between atoms: _344  and  _347
REMARK  138  A    between atoms: _347  and  _348
REMARK  139  A    between atoms: _348  and  _349
REMARK  140  A    between atoms: _349  and  _350
REMARK  141  A    between atoms: _350  and  _351
REMARK  142  A    between atoms: _355  and  _357
REMARK  143  A    between atoms: _357  and  _358
REMARK  144  A    between atoms: _357  and  _360
REMARK  145  A    between atoms: _360  and  _361
REMARK  146  A    between atoms: _364  and  _366
REMARK  147  A    between atoms: _366  and  _367
REMARK  148  A    between atoms: _370  and  _372
REMARK  149  A    between atoms: _372  and  _373
REMARK  150  A    between atoms: _375  and  _377
REMARK  151  A    between atoms: _377  and  _378
REMARK  152  A    between atoms: _377  and  _380
REMARK  153  A    between atoms: _380  and  _381
REMARK  154  A    between atoms: _384  and  _386
REMARK  155  A    between atoms: _386  and  _387
REMARK  156  A    between atoms: _386  and  _389
REMARK  157  A    between atoms: _389  and  _390
REMARK  158  A    between atoms: _393  and  _395
REMARK  159  A    between atoms: _395  and  _396
REMARK  160  A    between atoms: _399  and  _401
REMARK  161  A    between atoms: _401  and  _402
REMARK  162  A    between atoms: _401  and  _404
REMARK  163  A    between atoms: _404  and  _405
REMARK  164  A    between atoms: _405  and  _406
REMARK  165  A    between atoms: _409  and  _411
REMARK  166  A    between atoms: _411  and  _412
REMARK  167  A    between atoms: _411  and  _414
REMARK  168  A    between atoms: _417  and  _419
REMARK  169  A    between atoms: _419  and  _420
REMARK  170  A    between atoms: _419  and  _422
REMARK  171  A    between atoms: _422  and  _423
REMARK  172  A    between atoms: _426  and  _428
REMARK  173  A    between atoms: _428  and  _429
REMARK  174  A    between atoms: _431  and  _433
REMARK  175  A    between atoms: _433  and  _434
REMARK  176  A    between atoms: _433  and  _436
REMARK  177  A    between atoms: _439  and  _441
REMARK  178  A    between atoms: _441  and  _442
REMARK  179  A    between atoms: _444  and  _446
REMARK  180  A    between atoms: _446  and  _447
REMARK  181  A    between atoms: _446  and  _449
REMARK  182  A    between atoms: _449  and  _450
REMARK  183  A    between atoms: _453  and  _455
REMARK  184  A    between atoms: _455  and  _456
REMARK  185  A    between atoms: _455  and  _458
REMARK  186  A    between atoms: _458  and  _459
REMARK  187  A    between atoms: _464  and  _466
REMARK  188  A    between atoms: _466  and  _467
REMARK  189  A    between atoms: _466  and  _469
REMARK  190  A    between atoms: _472  and  _474
REMARK  191  A    between atoms: _474  and  _475
REMARK  192  A    between atoms: _474  and  _477
REMARK  193  A    between atoms: _477  and  _478
REMARK  194  A    between atoms: _478  and  _479
REMARK  195  A    between atoms: _484  and  _486
REMARK  196  A    between atoms: _486  and  _487
REMARK  197  A    between atoms: _491  and  _492
REMARK  198  A    between atoms: _497  and  _499
REMARK  199  A    between atoms: _499  and  _500
REMARK  200  A    between atoms: _499  and  _502
REMARK  201  A    between atoms: _502  and  _503
REMARK  202  A    between atoms: _503  and  _504
REMARK  203  A    between atoms: _507  and  _509
REMARK  204  A    between atoms: _509  and  _510
REMARK  205  A    between atoms: _509  and  _512
REMARK  206  A    between atoms: _515  and  _517
REMARK  207  A    between atoms: _517  and  _518
REMARK  208  A    between atoms: _517  and  _520
REMARK  209  A    between atoms: _520  and  _521
REMARK  210  A    between atoms: _525  and  _526
REMARK  211  A    between atoms: _531  and  _533
REMARK  212  A    between atoms: _533  and  _534
REMARK  213  A    between atoms: _533  and  _536
REMARK  214  A    between atoms: _536  and  _537
REMARK  215  A    between atoms: _540  and  _542
REMARK  216  A    between atoms: _542  and  _543
REMARK  217  A    between atoms: _546  and  _548
REMARK  218  A    between atoms: _548  and  _549
REMARK  219  A    between atoms: _548  and  _551
REMARK  220  A    between atoms: _551  and  _552
REMARK  221  A    between atoms: _555  and  _557
REMARK  222  A    between atoms: _557  and  _558
REMARK  223  A    between atoms: _557  and  _560
REMARK  224  A    between atoms: _560  and  _561
REMARK  225  A    between atoms: _563  and  _565
REMARK  226  A    between atoms: _565  and  _566
REMARK  227  A    between atoms: _568  and  _570
REMARK  228  A    between atoms: _570  and  _571
REMARK  229  A    between atoms: _570  and  _573
REMARK  230  A    between atoms: _573  and  _574
REMARK  231  A    between atoms: _577  and  _579
REMARK  232  A    between atoms: _579  and  _580
REMARK  233  A    between atoms: _579  and  _582
REMARK                            x       y       z     vdW  Elec       q    Type
REMARK                         _______ _______ _______ _____ _____    ______ ____
ROOT
ATOM      1  O   HOH     1       2.053  -1.660  16.683  0.00  0.00    +0.000 OA
ENDROOT
TORSDOF 0
REMARK  Name = ../refined-set-2016/4xtx/4xtx_pocket.pdb
REMARK  233 active torsions:
REMARK  status: ('A' for Active; 'I' for Inactive)
REMARK    1  A    between atoms: _1  and  _3
REMARK    2  A    between atoms: _3  and  _4
REMARK    3  A    between atoms: _3  and  _6
REMARK    4  A    between atoms: _6  and  _7
REMARK    5  A    between atoms: _10  and  _12
REMARK    6  A    between atoms: _12  and  _13
REMARK    7  A    between atoms: _15  and  _17
REMARK    8  A    between atoms: _17  and  _18
REMARK    9  A    between atoms: _17  and  _20
REMARK   10  A    between atoms: _20  and  _21
REMARK   11  A    between atoms: _23  and  _25
REMARK   12  A    between atoms: _25  and  _26
REMARK   13  A    between atoms: _25  and  _28
REMARK   14  A    between atoms: _28  and  _29
REMARK   15  A    between atoms: _32  and  _34
REMARK   16  A    between atoms: _34  and  _35
REMARK   17  A    between atoms: _34  and  _37
REMARK   18  A    between atoms: _37  and  _38
REMARK   19  A    between atoms: _43  and  _45
REMARK   20  A    between atoms: _45  and  _46
REMARK   21  A    between atoms: _49  and  _51
REMARK   22  A    between atoms: _51  and  _52
REMARK   23  A    between atoms: _51  and  _54
REMARK   24  A    between atoms: _54  and  _55
REMARK   25  A    between atoms: _58  and  _60
REMARK   26  A    between atoms: _60  and  _61
REMARK   27  A    between atoms: _60  and  _63
REMARK   28  A    between atoms: _63  and  _64
REMARK   29  A    between atoms: _67  and  _69
REMARK   30  A    between atoms: _69  and  _70
REMARK   31  A    between atoms: _69  and  _72
REMARK   32  A    between atoms: _72  and  _73
REMARK   33  A    between atoms: _76  and  _78
REMARK   34  A    between atoms: _78  and  _79
REMARK   35  A    between atoms: _82  and  _84
REMARK   36  A    between atoms: _84  and  _85
REMARK   37  A    between atoms: _84  and  _87
REMARK   38  A    between atoms: _87  and  _88
REMARK   39  A    between atoms: _88  and  _89
REMARK   40  A    between atoms: _94  and  _96
REMARK   41  A    between atoms: _96  and  _97
REMARK   42  A    between atoms: _96  and  _99
REMARK   43  A    between atoms: _99  and  _100
REMARK   44  A    between atoms: _103  and  _105
REMARK   45  A    between atoms: _105  and  _106
REMARK   46  A    between atoms: _109  and  _111
REMARK   47  A    between atoms: _111  and  _112
REMARK   48  A    between atoms: _114  and  _116
REMARK   49  A    between atoms: _116  and  _117
REMARK   50  A    between atoms: _116  and  _119
REMARK   51  A    between atoms: _119  and  _120
REMARK   52  A    between atoms: _120  and  _121
REMARK   53  A    between atoms: _121  and  _122
REMARK   54  A    between atoms: _131  and  _133
REMARK   55  A    between atoms: _133  and  _134
REMARK   56  A    between atoms: _136  and  _138
REMARK   57  A    between atoms: _138  and  _139
REMARK   58  A    between atoms: _138  and  _141
REMARK   59  A    between atoms: _141  and  _142
REMARK   60  A    between atoms: _142  and  _143
REMARK   61  A    between atoms: _143  and  _144
REMARK   62  A    between atoms: _153  and  _155
REMARK   63  A    between atoms: _155  and  _156
REMARK   64  A    between atoms: _155  and  _158
REMARK   65  A    between atoms: _158  and  _159
REMARK   66  A    between atoms: _164  and  _166
REMARK   67  A    between atoms: _166  and  _167
REMARK   68  A    between atoms: _169  and  _171
REMARK   69  A    between atoms: _171  and  _172
REMARK   70  A    between atoms: _171  and  _174
REMARK   71  A    between atoms: _174  and  _175
REMARK   72  A    between atoms: _175  and  _176
REMARK   73  A    between atoms: _176  and  _177
REMARK   74  A    between atoms: _186  and  _188
REMARK   75  A    between atoms: _188  and  _189
REMARK   76  A    between atoms: _191  and  _193
REMARK   77  A    between atoms: _193  and  _194
REMARK   78  A    between atoms: _193  and  _196
REMARK   79  A    between atoms: _196  and  _197
REMARK   80  A    between atoms: _207  and  _209
REMARK   81  A    between atoms: _209  and  _210
REMARK   82  A    between atoms: _213  and  _215
REMARK   83  A    between atoms: _215  and  _216
REMARK   84  A    between atoms: _219  and  _221
REMARK   85  A    between atoms: _221  and  _222
REMARK   86  A    between atoms: _221  and  _224
REMARK   87  A    between atoms: _224  and  _225
REMARK   88  A    between atoms: _228  and  _230
REMARK   89  A    between atoms: _230  and  _231
REMARK   90  A    between atoms: _234  and  _236
REMARK   91  A    between atoms: _236  and  _237
REMARK   92  A    between atoms: _236  and  _239
REMARK   93  A    between atoms: _239  and  _240
REMARK   94  A    between atoms: _240  and  _241
REMARK   95  A    between atoms: _246  and  _248
REMARK   96  A    between atoms: _248  and  _249
REMARK   97  A    between atoms: _248  and  _251
REMARK   98  A    between atoms: _251  and  _252
REMARK   99  A    between atoms: _255  and  _257
REMARK  100  A    between atoms: _257  and  _258
REMARK  101  A    between atoms: _257  and  _260
REMARK  102  A    between atoms: _260  and  _261
REMARK  103  A    between atoms: _264  and  _266
REMARK  104  A    between atoms: _266  and  _267
REMARK  105  A    between atoms: _266  and  _269
REMARK  106  A    between atoms: _269  and  _270
REMARK  107  A    between atoms: _273  and  _275
REMARK  108  A    between atoms: _275  and  _276
REMARK  109  A    between atoms: _275  and  _278
REMARK  110  A    between atoms: _278  and  _279
REMARK  111  A    between atoms: _281  and  _283
REMARK  112  A    between atoms: _283  and  _284
REMARK  113  A    between atoms: _283  and  _286
REMARK  114  A    between atoms: _289  and  _291
REMARK  115  A    between atoms: _291  and  _292
REMARK  116  A    between atoms: _291  and  _294
REMARK  117  A    between atoms: _294  and  _295
REMARK  118  A    between atoms: _295  and  _296
REMARK  119  A    between atoms: _296  and  _297
REMARK  120  A    between atoms: _297  and  _298
REMARK  121  A    between atoms: _303  and  _304
REMARK  122  A    between atoms: _309  and  _311
REMARK  123  A    between atoms: _311  and  _312
REMARK  124  A    between atoms: _311  and  _314
REMARK  125  A    between atoms: _314  and  _315
REMARK  126  A    between atoms: _320  and  _322
REMARK  127  A    between atoms: _322  and  _323
REMARK  128  A    between atoms: _322  and  _325
REMARK  129  A    between atoms: _325  and  _326
REMARK  130  A    between atoms: _329  and  _331
REMARK  131  A    between atoms: _331  and  _332
REMARK  132  A    between atoms: _331  and  _334
REMARK  133  A    between atoms: _337  and  _339
REMARK  134  A    between atoms: _339  and  _340
REMARK  135  A    between atoms: _342  and  _344
REMARK  136  A    between atoms: _344  and  _345
REMARK  137  A    between atoms: _344  and  _347
REMARK  138  A    between atoms: _347  and  _348
REMARK  139  A    between atoms: _348  and  _349
REMARK  140  A    between atoms: _349  and  _350
REMARK  141  A    between atoms: _350  and  _351
REMARK  142  A    between atoms: _355  and  _357
REMARK  143  A    between atoms: _357  and  _358
REMARK  144  A    between atoms: _357  and  _360
REMARK  145  A    between atoms: _360  and  _361
REMARK  146  A    between atoms: _364  and  _366
REMARK  147  A    between atoms: _366  and  _367
REMARK  148  A    between atoms: _370  and  _372
REMARK  149  A    between atoms: _372  and  _373
REMARK  150  A    between atoms: _375  and  _377
REMARK  151  A    between atoms: _377  and  _378
REMARK  152  A    between atoms: _377  and  _380
REMARK  153  A    between atoms: _380  and  _381
REMARK  154  A    between atoms: _384  and  _386
REMARK  155  A    between atoms: _386  and  _387
REMARK  156  A    between atoms: _386  and  _389
REMARK  157  A    between atoms: _389  and  _390
REMARK  158  A    between atoms: _393  and  _395
REMARK  159  A    between atoms: _395  and  _396
REMARK  160  A    between atoms: _399  and  _401
REMARK  161  A    between atoms: _401  and  _402
REMARK  162  A    between atoms: _401  and  _404
REMARK  163  A    between atoms: _404  and  _405
REMARK  164  A    between atoms: _405  and  _406
REMARK  165  A    between atoms: _409  and  _411
REMARK  166  A    between atoms: _411  and  _412
REMARK  167  A    between atoms: _411  and  _414
REMARK  168  A    between atoms: _417  and  _419
REMARK  169  A    between atoms: _419  and  _420
REMARK  170  A    between atoms: _419  and  _422
REMARK  171  A    between atoms: _422  and  _423
REMARK  172  A    between atoms: _426  and  _428
REMARK  173  A    between atoms: _428  and  _429
REMARK  174  A    between atoms: _431  and  _433
REMARK  175  A    between atoms: _433  and  _434
REMARK  176  A    between atoms: _433  and  _436
REMARK  177  A    between atoms: _439  and  _441
REMARK  178  A    between atoms: _441  and  _442
REMARK  179  A    between atoms: _444  and  _446
REMARK  180  A    between atoms: _446  and  _447
REMARK  181  A    between atoms: _446  and  _449
REMARK  182  A    between atoms: _449  and  _450
REMARK  183  A    between atoms: _453  and  _455
REMARK  184  A    between atoms: _455  and  _456
REMARK  185  A    between atoms: _455  and  _458
REMARK  186  A    between atoms: _458  and  _459
REMARK  187  A    between atoms: _464  and  _466
REMARK  188  A    between atoms: _466  and  _467
REMARK  189  A    between atoms: _466  and  _469
REMARK  190  A    between atoms: _472  and  _474
REMARK  191  A    between atoms: _474  and  _475
REMARK  192  A    between atoms: _474  and  _477
REMARK  193  A    between atoms: _477  and  _478
REMARK  194  A    between atoms: _478  and  _479
REMARK  195  A    between atoms: _484  and  _486
REMARK  196  A    between atoms: _486  and  _487
REMARK  197  A    between atoms: _491  and  _492
REMARK  198  A    between atoms: _497  and  _499
REMARK  199  A    between atoms: _499  and  _500
REMARK  200  A    between atoms: _499  and  _502
REMARK  201  A    between atoms: _502  and  _503
REMARK  202  A    between atoms: _503  and  _504
REMARK  203  A    between atoms: _507  and  _509
REMARK  204  A    between atoms: _509  and  _510
REMARK  205  A    between atoms: _509  and  _512
REMARK  206  A    between atoms: _515  and  _517
REMARK  207  A    between atoms: _517  and  _518
REMARK  208  A    between atoms: _517  and  _520
REMARK  209  A    between atoms: _520  and  _521
REMARK  210  A    between atoms: _525  and  _526
REMARK  211  A    between atoms: _531  and  _533
REMARK  212  A    between atoms: _533  and  _534
REMARK  213  A    between atoms: _533  and  _536
REMARK  214  A    between atoms: _536  and  _537
REMARK  215  A    between atoms: _540  and  _542
REMARK  216  A    between atoms: _542  and  _543
REMARK  217  A    between atoms: _546  and  _548
REMARK  218  A    between atoms: _548  and  _549
REMARK  219  A    between atoms: _548  and  _551
REMARK  220  A    between atoms: _551  and  _552
REMARK  221  A    between atoms: _555  and  _557
REMARK  222  A    between atoms: _557  and  _558
REMARK  223  A    between atoms: _557  and  _560
REMARK  224  A    between atoms: _560  and  _561
REMARK  225  A    between atoms: _563  and  _565
REMARK  226  A    between atoms: _565  and  _566
REMARK  227  A    between atoms: _568  and  _570
REMARK  228  A    between atoms: _570  and  _571
REMARK  229  A    between atoms: _570  and  _573
REMARK  230  A    between atoms: _573  and  _574
REMARK  231  A    between atoms: _577  and  _579
REMARK  232  A    between atoms: _579  and  _580
REMARK  233  A    between atoms: _579  and  _582
REMARK                            x       y       z     vdW  Elec       q    Type
REMARK                         _______ _______ _______ _____ _____    ______ ____
ROOT
ATOM      1  O   HOH     1      -9.102  -5.455   1.066  0.00  0.00    +0.000 OA
ENDROOT
TORSDOF 0
REMARK  Name = ../refined-set-2016/4xtx/4xtx_pocket.pdb
REMARK  233 active torsions:
REMARK  status: ('A' for Active; 'I' for Inactive)
REMARK    1  A    between atoms: _1  and  _3
REMARK    2  A    between atoms: _3  and  _4
REMARK    3  A    between atoms: _3  and  _6
REMARK    4  A    between atoms: _6  and  _7
REMARK    5  A    between atoms: _10  and  _12
REMARK    6  A    between atoms: _12  and  _13
REMARK    7  A    between atoms: _15  and  _17
REMARK    8  A    between atoms: _17  and  _18
REMARK    9  A    between atoms: _17  and  _20
REMARK   10  A    between atoms: _20  and  _21
REMARK   11  A    between atoms: _23  and  _25
REMARK   12  A    between atoms: _25  and  _26
REMARK   13  A    between atoms: _25  and  _28
REMARK   14  A    between atoms: _28  and  _29
REMARK   15  A    between atoms: _32  and  _34
REMARK   16  A    between atoms: _34  and  _35
REMARK   17  A    between atoms: _34  and  _37
REMARK   18  A    between atoms: _37  and  _38
REMARK   19  A    between atoms: _43  and  _45
REMARK   20  A    between atoms: _45  and  _46
REMARK   21  A    between atoms: _49  and  _51
REMARK   22  A    between atoms: _51  and  _52
REMARK   23  A    between atoms: _51  and  _54
REMARK   24  A    between atoms: _54  and  _55
REMARK   25  A    between atoms: _58  and  _60
REMARK   26  A    between atoms: _60  and  _61
REMARK   27  A    between atoms: _60  and  _63
REMARK   28  A    between atoms: _63  and  _64
REMARK   29  A    between atoms: _67  and  _69
REMARK   30  A    between atoms: _69  and  _70
REMARK   31  A    between atoms: _69  and  _72
REMARK   32  A    between atoms: _72  and  _73
REMARK   33  A    between atoms: _76  and  _78
REMARK   34  A    between atoms: _78  and  _79
REMARK   35  A    between atoms: _82  and  _84
REMARK   36  A    between atoms: _84  and  _85
REMARK   37  A    between atoms: _84  and  _87
REMARK   38  A    between atoms: _87  and  _88
REMARK   39  A    between atoms: _88  and  _89
REMARK   40  A    between atoms: _94  and  _96
REMARK   41  A    between atoms: _96  and  _97
REMARK   42  A    between atoms: _96  and  _99
REMARK   43  A    between atoms: _99  and  _100
REMARK   44  A    between atoms: _103  and  _105
REMARK   45  A    between atoms: _105  and  _106
REMARK   46  A    between atoms: _109  and  _111
REMARK   47  A    between atoms: _111  and  _112
REMARK   48  A    between atoms: _114  and  _116
REMARK   49  A    between atoms: _116  and  _117
REMARK   50  A    between atoms: _116  and  _119
REMARK   51  A    between atoms: _119  and  _120
REMARK   52  A    between atoms: _120  and  _121
REMARK   53  A    between atoms: _121  and  _122
REMARK   54  A    between atoms: _131  and  _133
REMARK   55  A    between atoms: _133  and  _134
REMARK   56  A    between atoms: _136  and  _138
REMARK   57  A    between atoms: _138  and  _139
REMARK   58  A    between atoms: _138  and  _141
REMARK   59  A    between atoms: _141  and  _142
REMARK   60  A    between atoms: _142  and  _143
REMARK   61  A    between atoms: _143  and  _144
REMARK   62  A    between atoms: _153  and  _155
REMARK   63  A    between atoms: _155  and  _156
REMARK   64  A    between atoms: _155  and  _158
REMARK   65  A    between atoms: _158  and  _159
REMARK   66  A    between atoms: _164  and  _166
REMARK   67  A    between atoms: _166  and  _167
REMARK   68  A    between atoms: _169  and  _171
REMARK   69  A    between atoms: _171  and  _172
REMARK   70  A    between atoms: _171  and  _174
REMARK   71  A    between atoms: _174  and  _175
REMARK   72  A    between atoms: _175  and  _176
REMARK   73  A    between atoms: _176  and  _177
REMARK   74  A    between atoms: _186  and  _188
REMARK   75  A    between atoms: _188  and  _189
REMARK   76  A    between atoms: _191  and  _193
REMARK   77  A    between atoms: _193  and  _194
REMARK   78  A    between atoms: _193  and  _196
REMARK   79  A    between atoms: _196  and  _197
REMARK   80  A    between atoms: _207  and  _209
REMARK   81  A    between atoms: _209  and  _210
REMARK   82  A    between atoms: _213  and  _215
REMARK   83  A    between atoms: _215  and  _216
REMARK   84  A    between atoms: _219  and  _221
REMARK   85  A    between atoms: _221  and  _222
REMARK   86  A    between atoms: _221  and  _224
REMARK   87  A    between atoms: _224  and  _225
REMARK   88  A    between atoms: _228  and  _230
REMARK   89  A    between atoms: _230  and  _231
REMARK   90  A    between atoms: _234  and  _236
REMARK   91  A    between atoms: _236  and  _237
REMARK   92  A    between atoms: _236  and  _239
REMARK   93  A    between atoms: _239  and  _240
REMARK   94  A    between atoms: _240  and  _241
REMARK   95  A    between atoms: _246  and  _248
REMARK   96  A    between atoms: _248  and  _249
REMARK   97  A    between atoms: _248  and  _251
REMARK   98  A    between atoms: _251  and  _252
REMARK   99  A    between atoms: _255  and  _257
REMARK  100  A    between atoms: _257  and  _258
REMARK  101  A    between atoms: _257  and  _260
REMARK  102  A    between atoms: _260  and  _261
REMARK  103  A    between atoms: _264  and  _266
REMARK  104  A    between atoms: _266  and  _267
REMARK  105  A    between atoms: _266  and  _269
REMARK  106  A    between atoms: _269  and  _270
REMARK  107  A    between atoms: _273  and  _275
REMARK  108  A    between atoms: _275  and  _276
REMARK  109  A    between atoms: _275  and  _278
REMARK  110  A    between atoms: _278  and  _279
REMARK  111  A    between atoms: _281  and  _283
REMARK  112  A    between atoms: _283  and  _284
REMARK  113  A    between atoms: _283  and  _286
REMARK  114  A    between atoms: _289  and  _291
REMARK  115  A    between atoms: _291  and  _292
REMARK  116  A    between atoms: _291  and  _294
REMARK  117  A    between atoms: _294  and  _295
REMARK  118  A    between atoms: _295  and  _296
REMARK  119  A    between atoms: _296  and  _297
REMARK  120  A    between atoms: _297  and  _298
REMARK  121  A    between atoms: _303  and  _304
REMARK  122  A    between atoms: _309  and  _311
REMARK  123  A    between atoms: _311  and  _312
REMARK  124  A    between atoms: _311  and  _314
REMARK  125  A    between atoms: _314  and  _315
REMARK  126  A    between atoms: _320  and  _322
REMARK  127  A    between atoms: _322  and  _323
REMARK  128  A    between atoms: _322  and  _325
REMARK  129  A    between atoms: _325  and  _326
REMARK  130  A    between atoms: _329  and  _331
REMARK  131  A    between atoms: _331  and  _332
REMARK  132  A    between atoms: _331  and  _334
REMARK  133  A    between atoms: _337  and  _339
REMARK  134  A    between atoms: _339  and  _340
REMARK  135  A    between atoms: _342  and  _344
REMARK  136  A    between atoms: _344  and  _345
REMARK  137  A    between atoms: _344  and  _347
REMARK  138  A    between atoms: _347  and  _348
REMARK  139  A    between atoms: _348  and  _349
REMARK  140  A    between atoms: _349  and  _350
REMARK  141  A    between atoms: _350  and  _351
REMARK  142  A    between atoms: _355  and  _357
REMARK  143  A    between atoms: _357  and  _358
REMARK  144  A    between atoms: _357  and  _360
REMARK  145  A    between atoms: _360  and  _361
REMARK  146  A    between atoms: _364  and  _366
REMARK  147  A    between atoms: _366  and  _367
REMARK  148  A    between atoms: _370  and  _372
REMARK  149  A    between atoms: _372  and  _373
REMARK  150  A    between atoms: _375  and  _377
REMARK  151  A    between atoms: _377  and  _378
REMARK  152  A    between atoms: _377  and  _380
REMARK  153  A    between atoms: _380  and  _381
REMARK  154  A    between atoms: _384  and  _386
REMARK  155  A    between atoms: _386  and  _387
REMARK  156  A    between atoms: _386  and  _389
REMARK  157  A    between atoms: _389  and  _390
REMARK  158  A    between atoms: _393  and  _395
REMARK  159  A    between atoms: _395  and  _396
REMARK  160  A    between atoms: _399  and  _401
REMARK  161  A    between atoms: _401  and  _402
REMARK  162  A    between atoms: _401  and  _404
REMARK  163  A    between atoms: _404  and  _405
REMARK  164  A    between atoms: _405  and  _406
REMARK  165  A    between atoms: _409  and  _411
REMARK  166  A    between atoms: _411  and  _412
REMARK  167  A    between atoms: _411  and  _414
REMARK  168  A    between atoms: _417  and  _419
REMARK  169  A    between atoms: _419  and  _420
REMARK  170  A    between atoms: _419  and  _422
REMARK  171  A    between atoms: _422  and  _423
REMARK  172  A    between atoms: _426  and  _428
REMARK  173  A    between atoms: _428  and  _429
REMARK  174  A    between atoms: _431  and  _433
REMARK  175  A    between atoms: _433  and  _434
REMARK  176  A    between atoms: _433  and  _436
REMARK  177  A    between atoms: _439  and  _441
REMARK  178  A    between atoms: _441  and  _442
REMARK  179  A    between atoms: _444  and  _446
REMARK  180  A    between atoms: _446  and  _447
REMARK  181  A    between atoms: _446  and  _449
REMARK  182  A    between atoms: _449  and  _450
REMARK  183  A    between atoms: _453  and  _455
REMARK  184  A    between atoms: _455  and  _456
REMARK  185  A    between atoms: _455  and  _458
REMARK  186  A    between atoms: _458  and  _459
REMARK  187  A    between atoms: _464  and  _466
REMARK  188  A    between atoms: _466  and  _467
REMARK  189  A    between atoms: _466  and  _469
REMARK  190  A    between atoms: _472  and  _474
REMARK  191  A    between atoms: _474  and  _475
REMARK  192  A    between atoms: _474  and  _477
REMARK  193  A    between atoms: _477  and  _478
REMARK  194  A    between atoms: _478  and  _479
REMARK  195  A    between atoms: _484  and  _486
REMARK  196  A    between atoms: _486  and  _487
REMARK  197  A    between atoms: _491  and  _492
REMARK  198  A    between atoms: _497  and  _499
REMARK  199  A    between atoms: _499  and  _500
REMARK  200  A    between atoms: _499  and  _502
REMARK  201  A    between atoms: _502  and  _503
REMARK  202  A    between atoms: _503  and  _504
REMARK  203  A    between atoms: _507  and  _509
REMARK  204  A    between atoms: _509  and  _510
REMARK  205  A    between atoms: _509  and  _512
REMARK  206  A    between atoms: _515  and  _517
REMARK  207  A    between atoms: _517  and  _518
REMARK  208  A    between atoms: _517  and  _520
REMARK  209  A    between atoms: _520  and  _521
REMARK  210  A    between atoms: _525  and  _526
REMARK  211  A    between atoms: _531  and  _533
REMARK  212  A    between atoms: _533  and  _534
REMARK  213  A    between atoms: _533  and  _536
REMARK  214  A    between atoms: _536  and  _537
REMARK  215  A    between atoms: _540  and  _542
REMARK  216  A    between atoms: _542  and  _543
REMARK  217  A    between atoms: _546  and  _548
REMARK  218  A    between atoms: _548  and  _549
REMARK  219  A    between atoms: _548  and  _551
REMARK  220  A    between atoms: _551  and  _552
REMARK  221  A    between atoms: _555  and  _557
REMARK  222  A    between atoms: _557  and  _558
REMARK  223  A    between atoms: _557  and  _560
REMARK  224  A    between atoms: _560  and  _561
REMARK  225  A    between atoms: _563  and  _565
REMARK  226  A    between atoms: _565  and  _566
REMARK  227  A    between atoms: _568  and  _570
REMARK  228  A    between atoms: _570  and  _571
REMARK  229  A    between atoms: _570  and  _573
REMARK  230  A    between atoms: _573  and  _574
REMARK  231  A    between atoms: _577  and  _579
REMARK  232  A    between atoms: _579  and  _580
REMARK  233  A    between atoms: _579  and  _582
REMARK                            x       y       z     vdW  Elec       q    Type
REMARK                         _______ _______ _______ _____ _____    ______ ____
ROOT
ATOM      1  O   HOH     1      -8.562   0.886   8.764  0.00  0.00    +0.000 OA
ENDROOT
TORSDOF 0
REMARK  Name = ../refined-set-2016/4xtx/4xtx_pocket.pdb
REMARK  233 active torsions:
REMARK  status: ('A' for Active; 'I' for Inactive)
REMARK    1  A    between atoms: _1  and  _3
REMARK    2  A    between atoms: _3  and  _4
REMARK    3  A    between atoms: _3  and  _6
REMARK    4  A    between atoms: _6  and  _7
REMARK    5  A    between atoms: _10  and  _12
REMARK    6  A    between atoms: _12  and  _13
REMARK    7  A    between atoms: _15  and  _17
REMARK    8  A    between atoms: _17  and  _18
REMARK    9  A    between atoms: _17  and  _20
REMARK   10  A    between atoms: _20  and  _21
REMARK   11  A    between atoms: _23  and  _25
REMARK   12  A    between atoms: _25  and  _26
REMARK   13  A    between atoms: _25  and  _28
REMARK   14  A    between atoms: _28  and  _29
REMARK   15  A    between atoms: _32  and  _34
REMARK   16  A    between atoms: _34  and  _35
REMARK   17  A    between atoms: _34  and  _37
REMARK   18  A    between atoms: _37  and  _38
REMARK   19  A    between atoms: _43  and  _45
REMARK   20  A    between atoms: _45  and  _46
REMARK   21  A    between atoms: _49  and  _51
REMARK   22  A    between atoms: _51  and  _52
REMARK   23  A    between atoms: _51  and  _54
REMARK   24  A    between atoms: _54  and  _55
REMARK   25  A    between atoms: _58  and  _60
REMARK   26  A    between atoms: _60  and  _61
REMARK   27  A    between atoms: _60  and  _63
REMARK   28  A    between atoms: _63  and  _64
REMARK   29  A    between atoms: _67  and  _69
REMARK   30  A    between atoms: _69  and  _70
REMARK   31  A    between atoms: _69  and  _72
REMARK   32  A    between atoms: _72  and  _73
REMARK   33  A    between atoms: _76  and  _78
REMARK   34  A    between atoms: _78  and  _79
REMARK   35  A    between atoms: _82  and  _84
REMARK   36  A    between atoms: _84  and  _85
REMARK   37  A    between atoms: _84  and  _87
REMARK   38  A    between atoms: _87  and  _88
REMARK   39  A    between atoms: _88  and  _89
REMARK   40  A    between atoms: _94  and  _96
REMARK   41  A    between atoms: _96  and  _97
REMARK   42  A    between atoms: _96  and  _99
REMARK   43  A    between atoms: _99  and  _100
REMARK   44  A    between atoms: _103  and  _105
REMARK   45  A    between atoms: _105  and  _106
REMARK   46  A    between atoms: _109  and  _111
REMARK   47  A    between atoms: _111  and  _112
REMARK   48  A    between atoms: _114  and  _116
REMARK   49  A    between atoms: _116  and  _117
REMARK   50  A    between atoms: _116  and  _119
REMARK   51  A    between atoms: _119  and  _120
REMARK   52  A    between atoms: _120  and  _121
REMARK   53  A    between atoms: _121  and  _122
REMARK   54  A    between atoms: _131  and  _133
REMARK   55  A    between atoms: _133  and  _134
REMARK   56  A    between atoms: _136  and  _138
REMARK   57  A    between atoms: _138  and  _139
REMARK   58  A    between atoms: _138  and  _141
REMARK   59  A    between atoms: _141  and  _142
REMARK   60  A    between atoms: _142  and  _143
REMARK   61  A    between atoms: _143  and  _144
REMARK   62  A    between atoms: _153  and  _155
REMARK   63  A    between atoms: _155  and  _156
REMARK   64  A    between atoms: _155  and  _158
REMARK   65  A    between atoms: _158  and  _159
REMARK   66  A    between atoms: _164  and  _166
REMARK   67  A    between atoms: _166  and  _167
REMARK   68  A    between atoms: _169  and  _171
REMARK   69  A    between atoms: _171  and  _172
REMARK   70  A    between atoms: _171  and  _174
REMARK   71  A    between atoms: _174  and  _175
REMARK   72  A    between atoms: _175  and  _176
REMARK   73  A    between atoms: _176  and  _177
REMARK   74  A    between atoms: _186  and  _188
REMARK   75  A    between atoms: _188  and  _189
REMARK   76  A    between atoms: _191  and  _193
REMARK   77  A    between atoms: _193  and  _194
REMARK   78  A    between atoms: _193  and  _196
REMARK   79  A    between atoms: _196  and  _197
REMARK   80  A    between atoms: _207  and  _209
REMARK   81  A    between atoms: _209  and  _210
REMARK   82  A    between atoms: _213  and  _215
REMARK   83  A    between atoms: _215  and  _216
REMARK   84  A    between atoms: _219  and  _221
REMARK   85  A    between atoms: _221  and  _222
REMARK   86  A    between atoms: _221  and  _224
REMARK   87  A    between atoms: _224  and  _225
REMARK   88  A    between atoms: _228  and  _230
REMARK   89  A    between atoms: _230  and  _231
REMARK   90  A    between atoms: _234  and  _236
REMARK   91  A    between atoms: _236  and  _237
REMARK   92  A    between atoms: _236  and  _239
REMARK   93  A    between atoms: _239  and  _240
REMARK   94  A    between atoms: _240  and  _241
REMARK   95  A    between atoms: _246  and  _248
REMARK   96  A    between atoms: _248  and  _249
REMARK   97  A    between atoms: _248  and  _251
REMARK   98  A    between atoms: _251  and  _252
REMARK   99  A    between atoms: _255  and  _257
REMARK  100  A    between atoms: _257  and  _258
REMARK  101  A    between atoms: _257  and  _260
REMARK  102  A    between atoms: _260  and  _261
REMARK  103  A    between atoms: _264  and  _266
REMARK  104  A    between atoms: _266  and  _267
REMARK  105  A    between atoms: _266  and  _269
REMARK  106  A    between atoms: _269  and  _270
REMARK  107  A    between atoms: _273  and  _275
REMARK  108  A    between atoms: _275  and  _276
REMARK  109  A    between atoms: _275  and  _278
REMARK  110  A    between atoms: _278  and  _279
REMARK  111  A    between atoms: _281  and  _283
REMARK  112  A    between atoms: _283  and  _284
REMARK  113  A    between atoms: _283  and  _286
REMARK  114  A    between atoms: _289  and  _291
REMARK  115  A    between atoms: _291  and  _292
REMARK  116  A    between atoms: _291  and  _294
REMARK  117  A    between atoms: _294  and  _295
REMARK  118  A    between atoms: _295  and  _296
REMARK  119  A    between atoms: _296  and  _297
REMARK  120  A    between atoms: _297  and  _298
REMARK  121  A    between atoms: _303  and  _304
REMARK  122  A    between atoms: _309  and  _311
REMARK  123  A    between atoms: _311  and  _312
REMARK  124  A    between atoms: _311  and  _314
REMARK  125  A    between atoms: _314  and  _315
REMARK  126  A    between atoms: _320  and  _322
REMARK  127  A    between atoms: _322  and  _323
REMARK  128  A    between atoms: _322  and  _325
REMARK  129  A    between atoms: _325  and  _326
REMARK  130  A    between atoms: _329  and  _331
REMARK  131  A    between atoms: _331  and  _332
REMARK  132  A    between atoms: _331  and  _334
REMARK  133  A    between atoms: _337  and  _339
REMARK  134  A    between atoms: _339  and  _340
REMARK  135  A    between atoms: _342  and  _344
REMARK  136  A    between atoms: _344  and  _345
REMARK  137  A    between atoms: _344  and  _347
REMARK  138  A    between atoms: _347  and  _348
REMARK  139  A    between atoms: _348  and  _349
REMARK  140  A    between atoms: _349  and  _350
REMARK  141  A    between atoms: _350  and  _351
REMARK  142  A    between atoms: _355  and  _357
REMARK  143  A    between atoms: _357  and  _358
REMARK  144  A    between atoms: _357  and  _360
REMARK  145  A    between atoms: _360  and  _361
REMARK  146  A    between atoms: _364  and  _366
REMARK  147  A    between atoms: _366  and  _367
REMARK  148  A    between atoms: _370  and  _372
REMARK  149  A    between atoms: _372  and  _373
REMARK  150  A    between atoms: _375  and  _377
REMARK  151  A    between atoms: _377  and  _378
REMARK  152  A    between atoms: _377  and  _380
REMARK  153  A    between atoms: _380  and  _381
REMARK  154  A    between atoms: _384  and  _386
REMARK  155  A    between atoms: _386  and  _387
REMARK  156  A    between atoms: _386  and  _389
REMARK  157  A    between atoms: _389  and  _390
REMARK  158  A    between atoms: _393  and  _395
REMARK  159  A    between atoms: _395  and  _396
REMARK  160  A    between atoms: _399  and  _401
REMARK  161  A    between atoms: _401  and  _402
REMARK  162  A    between atoms: _401  and  _404
REMARK  163  A    between atoms: _404  and  _405
REMARK  164  A    between atoms: _405  and  _406
REMARK  165  A    between atoms: _409  and  _411
REMARK  166  A    between atoms: _411  and  _412
REMARK  167  A    between atoms: _411  and  _414
REMARK  168  A    between atoms: _417  and  _419
REMARK  169  A    between atoms: _419  and  _420
REMARK  170  A    between atoms: _419  and  _422
REMARK  171  A    between atoms: _422  and  _423
REMARK  172  A    between atoms: _426  and  _428
REMARK  173  A    between atoms: _428  and  _429
REMARK  174  A    between atoms: _431  and  _433
REMARK  175  A    between atoms: _433  and  _434
REMARK  176  A    between atoms: _433  and  _436
REMARK  177  A    between atoms: _439  and  _441
REMARK  178  A    between atoms: _441  and  _442
REMARK  179  A    between atoms: _444  and  _446
REMARK  180  A    between atoms: _446  and  _447
REMARK  181  A    between atoms: _446  and  _449
REMARK  182  A    between atoms: _449  and  _450
REMARK  183  A    between atoms: _453  and  _455
REMARK  184  A    between atoms: _455  and  _456
REMARK  185  A    between atoms: _455  and  _458
REMARK  186  A    between atoms: _458  and  _459
REMARK  187  A    between atoms: _464  and  _466
REMARK  188  A    between atoms: _466  and  _467
REMARK  189  A    between atoms: _466  and  _469
REMARK  190  A    between atoms: _472  and  _474
REMARK  191  A    between atoms: _474  and  _475
REMARK  192  A    between atoms: _474  and  _477
REMARK  193  A    between atoms: _477  and  _478
REMARK  194  A    between atoms: _478  and  _479
REMARK  195  A    between atoms: _484  and  _486
REMARK  196  A    between atoms: _486  and  _487
REMARK  197  A    between atoms: _491  and  _492
REMARK  198  A    between atoms: _497  and  _499
REMARK  199  A    between atoms: _499  and  _500
REMARK  200  A    between atoms: _499  and  _502
REMARK  201  A    between atoms: _502  and  _503
REMARK  202  A    between atoms: _503  and  _504
REMARK  203  A    between atoms: _507  and  _509
REMARK  204  A    between atoms: _509  and  _510
REMARK  205  A    between atoms: _509  and  _512
REMARK  206  A    between atoms: _515  and  _517
REMARK  207  A    between atoms: _517  and  _518
REMARK  208  A    between atoms: _517  and  _520
REMARK  209  A    between atoms: _520  and  _521
REMARK  210  A    between atoms: _525  and  _526
REMARK  211  A    between atoms: _531  and  _533
REMARK  212  A    between atoms: _533  and  _534
REMARK  213  A    between atoms: _533  and  _536
REMARK  214  A    between atoms: _536  and  _537
REMARK  215  A    between atoms: _540  and  _542
REMARK  216  A    between atoms: _542  and  _543
REMARK  217  A    between atoms: _546  and  _548
REMARK  218  A    between atoms: _548  and  _549
REMARK  219  A    between atoms: _548  and  _551
REMARK  220  A    between atoms: _551  and  _552
REMARK  221  A    between atoms: _555  and  _557
REMARK  222  A    between atoms: _557  and  _558
REMARK  223  A    between atoms: _557  and  _560
REMARK  224  A    between atoms: _560  and  _561
REMARK  225  A    between atoms: _563  and  _565
REMARK  226  A    between atoms: _565  and  _566
REMARK  227  A    between atoms: _568  and  _570
REMARK  228  A    between atoms: _570  and  _571
REMARK  229  A    between atoms: _570  and  _573
REMARK  230  A    between atoms: _573  and  _574
REMARK  231  A    between atoms: _577  and  _579
REMARK  232  A    between atoms: _579  and  _580
REMARK  233  A    between atoms: _579  and  _582
REMARK                            x       y       z     vdW  Elec       q    Type
REMARK                         _______ _______ _______ _____ _____    ______ ____
ROOT
ATOM      1  O   HOH     1      -3.821 -12.749   5.808  0.00  0.00    +0.000 OA
ENDROOT
TORSDOF 0
REMARK  Name = ../refined-set-2016/4xtx/4xtx_pocket.pdb
REMARK  233 active torsions:
REMARK  status: ('A' for Active; 'I' for Inactive)
REMARK    1  A    between atoms: _1  and  _3
REMARK    2  A    between atoms: _3  and  _4
REMARK    3  A    between atoms: _3  and  _6
REMARK    4  A    between atoms: _6  and  _7
REMARK    5  A    between atoms: _10  and  _12
REMARK    6  A    between atoms: _12  and  _13
REMARK    7  A    between atoms: _15  and  _17
REMARK    8  A    between atoms: _17  and  _18
REMARK    9  A    between atoms: _17  and  _20
REMARK   10  A    between atoms: _20  and  _21
REMARK   11  A    between atoms: _23  and  _25
REMARK   12  A    between atoms: _25  and  _26
REMARK   13  A    between atoms: _25  and  _28
REMARK   14  A    between atoms: _28  and  _29
REMARK   15  A    between atoms: _32  and  _34
REMARK   16  A    between atoms: _34  and  _35
REMARK   17  A    between atoms: _34  and  _37
REMARK   18  A    between atoms: _37  and  _38
REMARK   19  A    between atoms: _43  and  _45
REMARK   20  A    between atoms: _45  and  _46
REMARK   21  A    between atoms: _49  and  _51
REMARK   22  A    between atoms: _51  and  _52
REMARK   23  A    between atoms: _51  and  _54
REMARK   24  A    between atoms: _54  and  _55
REMARK   25  A    between atoms: _58  and  _60
REMARK   26  A    between atoms: _60  and  _61
REMARK   27  A    between atoms: _60  and  _63
REMARK   28  A    between atoms: _63  and  _64
REMARK   29  A    between atoms: _67  and  _69
REMARK   30  A    between atoms: _69  and  _70
REMARK   31  A    between atoms: _69  and  _72
REMARK   32  A    between atoms: _72  and  _73
REMARK   33  A    between atoms: _76  and  _78
REMARK   34  A    between atoms: _78  and  _79
REMARK   35  A    between atoms: _82  and  _84
REMARK   36  A    between atoms: _84  and  _85
REMARK   37  A    between atoms: _84  and  _87
REMARK   38  A    between atoms: _87  and  _88
REMARK   39  A    between atoms: _88  and  _89
REMARK   40  A    between atoms: _94  and  _96
REMARK   41  A    between atoms: _96  and  _97
REMARK   42  A    between atoms: _96  and  _99
REMARK   43  A    between atoms: _99  and  _100
REMARK   44  A    between atoms: _103  and  _105
REMARK   45  A    between atoms: _105  and  _106
REMARK   46  A    between atoms: _109  and  _111
REMARK   47  A    between atoms: _111  and  _112
REMARK   48  A    between atoms: _114  and  _116
REMARK   49  A    between atoms: _116  and  _117
REMARK   50  A    between atoms: _116  and  _119
REMARK   51  A    between atoms: _119  and  _120
REMARK   52  A    between atoms: _120  and  _121
REMARK   53  A    between atoms: _121  and  _122
REMARK   54  A    between atoms: _131  and  _133
REMARK   55  A    between atoms: _133  and  _134
REMARK   56  A    between atoms: _136  and  _138
REMARK   57  A    between atoms: _138  and  _139
REMARK   58  A    between atoms: _138  and  _141
REMARK   59  A    between atoms: _141  and  _142
REMARK   60  A    between atoms: _142  and  _143
REMARK   61  A    between atoms: _143  and  _144
REMARK   62  A    between atoms: _153  and  _155
REMARK   63  A    between atoms: _155  and  _156
REMARK   64  A    between atoms: _155  and  _158
REMARK   65  A    between atoms: _158  and  _159
REMARK   66  A    between atoms: _164  and  _166
REMARK   67  A    between atoms: _166  and  _167
REMARK   68  A    between atoms: _169  and  _171
REMARK   69  A    between atoms: _171  and  _172
REMARK   70  A    between atoms: _171  and  _174
REMARK   71  A    between atoms: _174  and  _175
REMARK   72  A    between atoms: _175  and  _176
REMARK   73  A    between atoms: _176  and  _177
REMARK   74  A    between atoms: _186  and  _188
REMARK   75  A    between atoms: _188  and  _189
REMARK   76  A    between atoms: _191  and  _193
REMARK   77  A    between atoms: _193  and  _194
REMARK   78  A    between atoms: _193  and  _196
REMARK   79  A    between atoms: _196  and  _197
REMARK   80  A    between atoms: _207  and  _209
REMARK   81  A    between atoms: _209  and  _210
REMARK   82  A    between atoms: _213  and  _215
REMARK   83  A    between atoms: _215  and  _216
REMARK   84  A    between atoms: _219  and  _221
REMARK   85  A    between atoms: _221  and  _222
REMARK   86  A    between atoms: _221  and  _224
REMARK   87  A    between atoms: _224  and  _225
REMARK   88  A    between atoms: _228  and  _230
REMARK   89  A    between atoms: _230  and  _231
REMARK   90  A    between atoms: _234  and  _236
REMARK   91  A    between atoms: _236  and  _237
REMARK   92  A    between atoms: _236  and  _239
REMARK   93  A    between atoms: _239  and  _240
REMARK   94  A    between atoms: _240  and  _241
REMARK   95  A    between atoms: _246  and  _248
REMARK   96  A    between atoms: _248  and  _249
REMARK   97  A    between atoms: _248  and  _251
REMARK   98  A    between atoms: _251  and  _252
REMARK   99  A    between atoms: _255  and  _257
REMARK  100  A    between atoms: _257  and  _258
REMARK  101  A    between atoms: _257  and  _260
REMARK  102  A    between atoms: _260  and  _261
REMARK  103  A    between atoms: _264  and  _266
REMARK  104  A    between atoms: _266  and  _267
REMARK  105  A    between atoms: _266  and  _269
REMARK  106  A    between atoms: _269  and  _270
REMARK  107  A    between atoms: _273  and  _275
REMARK  108  A    between atoms: _275  and  _276
REMARK  109  A    between atoms: _275  and  _278
REMARK  110  A    between atoms: _278  and  _279
REMARK  111  A    between atoms: _281  and  _283
REMARK  112  A    between atoms: _283  and  _284
REMARK  113  A    between atoms: _283  and  _286
REMARK  114  A    between atoms: _289  and  _291
REMARK  115  A    between atoms: _291  and  _292
REMARK  116  A    between atoms: _291  and  _294
REMARK  117  A    between atoms: _294  and  _295
REMARK  118  A    between atoms: _295  and  _296
REMARK  119  A    between atoms: _296  and  _297
REMARK  120  A    between atoms: _297  and  _298
REMARK  121  A    between atoms: _303  and  _304
REMARK  122  A    between atoms: _309  and  _311
REMARK  123  A    between atoms: _311  and  _312
REMARK  124  A    between atoms: _311  and  _314
REMARK  125  A    between atoms: _314  and  _315
REMARK  126  A    between atoms: _320  and  _322
REMARK  127  A    between atoms: _322  and  _323
REMARK  128  A    between atoms: _322  and  _325
REMARK  129  A    between atoms: _325  and  _326
REMARK  130  A    between atoms: _329  and  _331
REMARK  131  A    between atoms: _331  and  _332
REMARK  132  A    between atoms: _331  and  _334
REMARK  133  A    between atoms: _337  and  _339
REMARK  134  A    between atoms: _339  and  _340
REMARK  135  A    between atoms: _342  and  _344
REMARK  136  A    between atoms: _344  and  _345
REMARK  137  A    between atoms: _344  and  _347
REMARK  138  A    between atoms: _347  and  _348
REMARK  139  A    between atoms: _348  and  _349
REMARK  140  A    between atoms: _349  and  _350
REMARK  141  A    between atoms: _350  and  _351
REMARK  142  A    between atoms: _355  and  _357
REMARK  143  A    between atoms: _357  and  _358
REMARK  144  A    between atoms: _357  and  _360
REMARK  145  A    between atoms: _360  and  _361
REMARK  146  A    between atoms: _364  and  _366
REMARK  147  A    between atoms: _366  and  _367
REMARK  148  A    between atoms: _370  and  _372
REMARK  149  A    between atoms: _372  and  _373
REMARK  150  A    between atoms: _375  and  _377
REMARK  151  A    between atoms: _377  and  _378
REMARK  152  A    between atoms: _377  and  _380
REMARK  153  A    between atoms: _380  and  _381
REMARK  154  A    between atoms: _384  and  _386
REMARK  155  A    between atoms: _386  and  _387
REMARK  156  A    between atoms: _386  and  _389
REMARK  157  A    between atoms: _389  and  _390
REMARK  158  A    between atoms: _393  and  _395
REMARK  159  A    between atoms: _395  and  _396
REMARK  160  A    between atoms: _399  and  _401
REMARK  161  A    between atoms: _401  and  _402
REMARK  162  A    between atoms: _401  and  _404
REMARK  163  A    between atoms: _404  and  _405
REMARK  164  A    between atoms: _405  and  _406
REMARK  165  A    between atoms: _409  and  _411
REMARK  166  A    between atoms: _411  and  _412
REMARK  167  A    between atoms: _411  and  _414
REMARK  168  A    between atoms: _417  and  _419
REMARK  169  A    between atoms: _419  and  _420
REMARK  170  A    between atoms: _419  and  _422
REMARK  171  A    between atoms: _422  and  _423
REMARK  172  A    between atoms: _426  and  _428
REMARK  173  A    between atoms: _428  and  _429
REMARK  174  A    between atoms: _431  and  _433
REMARK  175  A    between atoms: _433  and  _434
REMARK  176  A    between atoms: _433  and  _436
REMARK  177  A    between atoms: _439  and  _441
REMARK  178  A    between atoms: _441  and  _442
REMARK  179  A    between atoms: _444  and  _446
REMARK  180  A    between atoms: _446  and  _447
REMARK  181  A    between atoms: _446  and  _449
REMARK  182  A    between atoms: _449  and  _450
REMARK  183  A    between atoms: _453  and  _455
REMARK  184  A    between atoms: _455  and  _456
REMARK  185  A    between atoms: _455  and  _458
REMARK  186  A    between atoms: _458  and  _459
REMARK  187  A    between atoms: _464  and  _466
REMARK  188  A    between atoms: _466  and  _467
REMARK  189  A    between atoms: _466  and  _469
REMARK  190  A    between atoms: _472  and  _474
REMARK  191  A    between atoms: _474  and  _475
REMARK  192  A    between atoms: _474  and  _477
REMARK  193  A    between atoms: _477  and  _478
REMARK  194  A    between atoms: _478  and  _479
REMARK  195  A    between atoms: _484  and  _486
REMARK  196  A    between atoms: _486  and  _487
REMARK  197  A    between atoms: _491  and  _492
REMARK  198  A    between atoms: _497  and  _499
REMARK  199  A    between atoms: _499  and  _500
REMARK  200  A    between atoms: _499  and  _502
REMARK  201  A    between atoms: _502  and  _503
REMARK  202  A    between atoms: _503  and  _504
REMARK  203  A    between atoms: _507  and  _509
REMARK  204  A    between atoms: _509  and  _510
REMARK  205  A    between atoms: _509  and  _512
REMARK  206  A    between atoms: _515  and  _517
REMARK  207  A    between atoms: _517  and  _518
REMARK  208  A    between atoms: _517  and  _520
REMARK  209  A    between atoms: _520  and  _521
REMARK  210  A    between atoms: _525  and  _526
REMARK  211  A    between atoms: _531  and  _533
REMARK  212  A    between atoms: _533  and  _534
REMARK  213  A    between atoms: _533  and  _536
REMARK  214  A    between atoms: _536  and  _537
REMARK  215  A    between atoms: _540  and  _542
REMARK  216  A    between atoms: _542  and  _543
REMARK  217  A    between atoms: _546  and  _548
REMARK  218  A    between atoms: _548  and  _549
REMARK  219  A    between atoms: _548  and  _551
REMARK  220  A    between atoms: _551  and  _552
REMARK  221  A    between atoms: _555  and  _557
REMARK  222  A    between atoms: _557  and  _558
REMARK  223  A    between atoms: _557  and  _560
REMARK  224  A    between atoms: _560  and  _561
REMARK  225  A    between atoms: _563  and  _565
REMARK  226  A    between atoms: _565  and  _566
REMARK  227  A    between atoms: _568  and  _570
REMARK  228  A    between atoms: _570  and  _571
REMARK  229  A    between atoms: _570  and  _573
REMARK  230  A    between atoms: _573  and  _574
REMARK  231  A    between atoms: _577  and  _579
REMARK  232  A    between atoms: _579  and  _580
REMARK  233  A    between atoms: _579  and  _582
REMARK                            x       y       z     vdW  Elec       q    Type
REMARK                         _______ _______ _______ _____ _____    ______ ____
ROOT
ATOM      1  O   HOH     1      -7.099  -1.767   5.780  0.00  0.00    +0.000 OA
ENDROOT
TORSDOF 0
REMARK  Name = ../refined-set-2016/4xtx/4xtx_pocket.pdb
REMARK  233 active torsions:
REMARK  status: ('A' for Active; 'I' for Inactive)
REMARK    1  A    between atoms: _1  and  _3
REMARK    2  A    between atoms: _3  and  _4
REMARK    3  A    between atoms: _3  and  _6
REMARK    4  A    between atoms: _6  and  _7
REMARK    5  A    between atoms: _10  and  _12
REMARK    6  A    between atoms: _12  and  _13
REMARK    7  A    between atoms: _15  and  _17
REMARK    8  A    between atoms: _17  and  _18
REMARK    9  A    between atoms: _17  and  _20
REMARK   10  A    between atoms: _20  and  _21
REMARK   11  A    between atoms: _23  and  _25
REMARK   12  A    between atoms: _25  and  _26
REMARK   13  A    between atoms: _25  and  _28
REMARK   14  A    between atoms: _28  and  _29
REMARK   15  A    between atoms: _32  and  _34
REMARK   16  A    between atoms: _34  and  _35
REMARK   17  A    between atoms: _34  and  _37
REMARK   18  A    between atoms: _37  and  _38
REMARK   19  A    between atoms: _43  and  _45
REMARK   20  A    between atoms: _45  and  _46
REMARK   21  A    between atoms: _49  and  _51
REMARK   22  A    between atoms: _51  and  _52
REMARK   23  A    between atoms: _51  and  _54
REMARK   24  A    between atoms: _54  and  _55
REMARK   25  A    between atoms: _58  and  _60
REMARK   26  A    between atoms: _60  and  _61
REMARK   27  A    between atoms: _60  and  _63
REMARK   28  A    between atoms: _63  and  _64
REMARK   29  A    between atoms: _67  and  _69
REMARK   30  A    between atoms: _69  and  _70
REMARK   31  A    between atoms: _69  and  _72
REMARK   32  A    between atoms: _72  and  _73
REMARK   33  A    between atoms: _76  and  _78
REMARK   34  A    between atoms: _78  and  _79
REMARK   35  A    between atoms: _82  and  _84
REMARK   36  A    between atoms: _84  and  _85
REMARK   37  A    between atoms: _84  and  _87
REMARK   38  A    between atoms: _87  and  _88
REMARK   39  A    between atoms: _88  and  _89
REMARK   40  A    between atoms: _94  and  _96
REMARK   41  A    between atoms: _96  and  _97
REMARK   42  A    between atoms: _96  and  _99
REMARK   43  A    between atoms: _99  and  _100
REMARK   44  A    between atoms: _103  and  _105
REMARK   45  A    between atoms: _105  and  _106
REMARK   46  A    between atoms: _109  and  _111
REMARK   47  A    between atoms: _111  and  _112
REMARK   48  A    between atoms: _114  and  _116
REMARK   49  A    between atoms: _116  and  _117
REMARK   50  A    between atoms: _116  and  _119
REMARK   51  A    between atoms: _119  and  _120
REMARK   52  A    between atoms: _120  and  _121
REMARK   53  A    between atoms: _121  and  _122
REMARK   54  A    between atoms: _131  and  _133
REMARK   55  A    between atoms: _133  and  _134
REMARK   56  A    between atoms: _136  and  _138
REMARK   57  A    between atoms: _138  and  _139
REMARK   58  A    between atoms: _138  and  _141
REMARK   59  A    between atoms: _141  and  _142
REMARK   60  A    between atoms: _142  and  _143
REMARK   61  A    between atoms: _143  and  _144
REMARK   62  A    between atoms: _153  and  _155
REMARK   63  A    between atoms: _155  and  _156
REMARK   64  A    between atoms: _155  and  _158
REMARK   65  A    between atoms: _158  and  _159
REMARK   66  A    between atoms: _164  and  _166
REMARK   67  A    between atoms: _166  and  _167
REMARK   68  A    between atoms: _169  and  _171
REMARK   69  A    between atoms: _171  and  _172
REMARK   70  A    between atoms: _171  and  _174
REMARK   71  A    between atoms: _174  and  _175
REMARK   72  A    between atoms: _175  and  _176
REMARK   73  A    between atoms: _176  and  _177
REMARK   74  A    between atoms: _186  and  _188
REMARK   75  A    between atoms: _188  and  _189
REMARK   76  A    between atoms: _191  and  _193
REMARK   77  A    between atoms: _193  and  _194
REMARK   78  A    between atoms: _193  and  _196
REMARK   79  A    between atoms: _196  and  _197
REMARK   80  A    between atoms: _207  and  _209
REMARK   81  A    between atoms: _209  and  _210
REMARK   82  A    between atoms: _213  and  _215
REMARK   83  A    between atoms: _215  and  _216
REMARK   84  A    between atoms: _219  and  _221
REMARK   85  A    between atoms: _221  and  _222
REMARK   86  A    between atoms: _221  and  _224
REMARK   87  A    between atoms: _224  and  _225
REMARK   88  A    between atoms: _228  and  _230
REMARK   89  A    between atoms: _230  and  _231
REMARK   90  A    between atoms: _234  and  _236
REMARK   91  A    between atoms: _236  and  _237
REMARK   92  A    between atoms: _236  and  _239
REMARK   93  A    between atoms: _239  and  _240
REMARK   94  A    between atoms: _240  and  _241
REMARK   95  A    between atoms: _246  and  _248
REMARK   96  A    between atoms: _248  and  _249
REMARK   97  A    between atoms: _248  and  _251
REMARK   98  A    between atoms: _251  and  _252
REMARK   99  A    between atoms: _255  and  _257
REMARK  100  A    between atoms: _257  and  _258
REMARK  101  A    between atoms: _257  and  _260
REMARK  102  A    between atoms: _260  and  _261
REMARK  103  A    between atoms: _264  and  _266
REMARK  104  A    between atoms: _266  and  _267
REMARK  105  A    between atoms: _266  and  _269
REMARK  106  A    between atoms: _269  and  _270
REMARK  107  A    between atoms: _273  and  _275
REMARK  108  A    between atoms: _275  and  _276
REMARK  109  A    between atoms: _275  and  _278
REMARK  110  A    between atoms: _278  and  _279
REMARK  111  A    between atoms: _281  and  _283
REMARK  112  A    between atoms: _283  and  _284
REMARK  113  A    between atoms: _283  and  _286
REMARK  114  A    between atoms: _289  and  _291
REMARK  115  A    between atoms: _291  and  _292
REMARK  116  A    between atoms: _291  and  _294
REMARK  117  A    between atoms: _294  and  _295
REMARK  118  A    between atoms: _295  and  _296
REMARK  119  A    between atoms: _296  and  _297
REMARK  120  A    between atoms: _297  and  _298
REMARK  121  A    between atoms: _303  and  _304
REMARK  122  A    between atoms: _309  and  _311
REMARK  123  A    between atoms: _311  and  _312
REMARK  124  A    between atoms: _311  and  _314
REMARK  125  A    between atoms: _314  and  _315
REMARK  126  A    between atoms: _320  and  _322
REMARK  127  A    between atoms: _322  and  _323
REMARK  128  A    between atoms: _322  and  _325
REMARK  129  A    between atoms: _325  and  _326
REMARK  130  A    between atoms: _329  and  _331
REMARK  131  A    between atoms: _331  and  _332
REMARK  132  A    between atoms: _331  and  _334
REMARK  133  A    between atoms: _337  and  _339
REMARK  134  A    between atoms: _339  and  _340
REMARK  135  A    between atoms: _342  and  _344
REMARK  136  A    between atoms: _344  and  _345
REMARK  137  A    between atoms: _344  and  _347
REMARK  138  A    between atoms: _347  and  _348
REMARK  139  A    between atoms: _348  and  _349
REMARK  140  A    between atoms: _349  and  _350
REMARK  141  A    between atoms: _350  and  _351
REMARK  142  A    between atoms: _355  and  _357
REMARK  143  A    between atoms: _357  and  _358
REMARK  144  A    between atoms: _357  and  _360
REMARK  145  A    between atoms: _360  and  _361
REMARK  146  A    between atoms: _364  and  _366
REMARK  147  A    between atoms: _366  and  _367
REMARK  148  A    between atoms: _370  and  _372
REMARK  149  A    between atoms: _372  and  _373
REMARK  150  A    between atoms: _375  and  _377
REMARK  151  A    between atoms: _377  and  _378
REMARK  152  A    between atoms: _377  and  _380
REMARK  153  A    between atoms: _380  and  _381
REMARK  154  A    between atoms: _384  and  _386
REMARK  155  A    between atoms: _386  and  _387
REMARK  156  A    between atoms: _386  and  _389
REMARK  157  A    between atoms: _389  and  _390
REMARK  158  A    between atoms: _393  and  _395
REMARK  159  A    between atoms: _395  and  _396
REMARK  160  A    between atoms: _399  and  _401
REMARK  161  A    between atoms: _401  and  _402
REMARK  162  A    between atoms: _401  and  _404
REMARK  163  A    between atoms: _404  and  _405
REMARK  164  A    between atoms: _405  and  _406
REMARK  165  A    between atoms: _409  and  _411
REMARK  166  A    between atoms: _411  and  _412
REMARK  167  A    between atoms: _411  and  _414
REMARK  168  A    between atoms: _417  and  _419
REMARK  169  A    between atoms: _419  and  _420
REMARK  170  A    between atoms: _419  and  _422
REMARK  171  A    between atoms: _422  and  _423
REMARK  172  A    between atoms: _426  and  _428
REMARK  173  A    between atoms: _428  and  _429
REMARK  174  A    between atoms: _431  and  _433
REMARK  175  A    between atoms: _433  and  _434
REMARK  176  A    between atoms: _433  and  _436
REMARK  177  A    between atoms: _439  and  _441
REMARK  178  A    between atoms: _441  and  _442
REMARK  179  A    between atoms: _444  and  _446
REMARK  180  A    between atoms: _446  and  _447
REMARK  181  A    between atoms: _446  and  _449
REMARK  182  A    between atoms: _449  and  _450
REMARK  183  A    between atoms: _453  and  _455
REMARK  184  A    between atoms: _455  and  _456
REMARK  185  A    between atoms: _455  and  _458
REMARK  186  A    between atoms: _458  and  _459
REMARK  187  A    between atoms: _464  and  _466
REMARK  188  A    between atoms: _466  and  _467
REMARK  189  A    between atoms: _466  and  _469
REMARK  190  A    between atoms: _472  and  _474
REMARK  191  A    between atoms: _474  and  _475
REMARK  192  A    between atoms: _474  and  _477
REMARK  193  A    between atoms: _477  and  _478
REMARK  194  A    between atoms: _478  and  _479
REMARK  195  A    between atoms: _484  and  _486
REMARK  196  A    between atoms: _486  and  _487
REMARK  197  A    between atoms: _491  and  _492
REMARK  198  A    between atoms: _497  and  _499
REMARK  199  A    between atoms: _499  and  _500
REMARK  200  A    between atoms: _499  and  _502
REMARK  201  A    between atoms: _502  and  _503
REMARK  202  A    between atoms: _503  and  _504
REMARK  203  A    between atoms: _507  and  _509
REMARK  204  A    between atoms: _509  and  _510
REMARK  205  A    between atoms: _509  and  _512
REMARK  206  A    between atoms: _515  and  _517
REMARK  207  A    between atoms: _517  and  _518
REMARK  208  A    between atoms: _517  and  _520
REMARK  209  A    between atoms: _520  and  _521
REMARK  210  A    between atoms: _525  and  _526
REMARK  211  A    between atoms: _531  and  _533
REMARK  212  A    between atoms: _533  and  _534
REMARK  213  A    between atoms: _533  and  _536
REMARK  214  A    between atoms: _536  and  _537
REMARK  215  A    between atoms: _540  and  _542
REMARK  216  A    between atoms: _542  and  _543
REMARK  217  A    between atoms: _546  and  _548
REMARK  218  A    between atoms: _548  and  _549
REMARK  219  A    between atoms: _548  and  _551
REMARK  220  A    between atoms: _551  and  _552
REMARK  221  A    between atoms: _555  and  _557
REMARK  222  A    between atoms: _557  and  _558
REMARK  223  A    between atoms: _557  and  _560
REMARK  224  A    between atoms: _560  and  _561
REMARK  225  A    between atoms: _563  and  _565
REMARK  226  A    between atoms: _565  and  _566
REMARK  227  A    between atoms: _568  and  _570
REMARK  228  A    between atoms: _570  and  _571
REMARK  229  A    between atoms: _570  and  _573
REMARK  230  A    between atoms: _573  and  _574
REMARK  231  A    between atoms: _577  and  _579
REMARK  232  A    between atoms: _579  and  _580
REMARK  233  A    between atoms: _579  and  _582
REMARK                            x       y       z     vdW  Elec       q    Type
REMARK                         _______ _______ _______ _____ _____    ______ ____
ROOT
ATOM      1  O   HOH     1      -8.703  -8.669   7.247  0.00  0.00    +0.000 OA
ENDROOT
TORSDOF 0
REMARK  Name = ../refined-set-2016/4xtx/4xtx_pocket.pdb
REMARK  233 active torsions:
REMARK  status: ('A' for Active; 'I' for Inactive)
REMARK    1  A    between atoms: _1  and  _3
REMARK    2  A    between atoms: _3  and  _4
REMARK    3  A    between atoms: _3  and  _6
REMARK    4  A    between atoms: _6  and  _7
REMARK    5  A    between atoms: _10  and  _12
REMARK    6  A    between atoms: _12  and  _13
REMARK    7  A    between atoms: _15  and  _17
REMARK    8  A    between atoms: _17  and  _18
REMARK    9  A    between atoms: _17  and  _20
REMARK   10  A    between atoms: _20  and  _21
REMARK   11  A    between atoms: _23  and  _25
REMARK   12  A    between atoms: _25  and  _26
REMARK   13  A    between atoms: _25  and  _28
REMARK   14  A    between atoms: _28  and  _29
REMARK   15  A    between atoms: _32  and  _34
REMARK   16  A    between atoms: _34  and  _35
REMARK   17  A    between atoms: _34  and  _37
REMARK   18  A    between atoms: _37  and  _38
REMARK   19  A    between atoms: _43  and  _45
REMARK   20  A    between atoms: _45  and  _46
REMARK   21  A    between atoms: _49  and  _51
REMARK   22  A    between atoms: _51  and  _52
REMARK   23  A    between atoms: _51  and  _54
REMARK   24  A    between atoms: _54  and  _55
REMARK   25  A    between atoms: _58  and  _60
REMARK   26  A    between atoms: _60  and  _61
REMARK   27  A    between atoms: _60  and  _63
REMARK   28  A    between atoms: _63  and  _64
REMARK   29  A    between atoms: _67  and  _69
REMARK   30  A    between atoms: _69  and  _70
REMARK   31  A    between atoms: _69  and  _72
REMARK   32  A    between atoms: _72  and  _73
REMARK   33  A    between atoms: _76  and  _78
REMARK   34  A    between atoms: _78  and  _79
REMARK   35  A    between atoms: _82  and  _84
REMARK   36  A    between atoms: _84  and  _85
REMARK   37  A    between atoms: _84  and  _87
REMARK   38  A    between atoms: _87  and  _88
REMARK   39  A    between atoms: _88  and  _89
REMARK   40  A    between atoms: _94  and  _96
REMARK   41  A    between atoms: _96  and  _97
REMARK   42  A    between atoms: _96  and  _99
REMARK   43  A    between atoms: _99  and  _100
REMARK   44  A    between atoms: _103  and  _105
REMARK   45  A    between atoms: _105  and  _106
REMARK   46  A    between atoms: _109  and  _111
REMARK   47  A    between atoms: _111  and  _112
REMARK   48  A    between atoms: _114  and  _116
REMARK   49  A    between atoms: _116  and  _117
REMARK   50  A    between atoms: _116  and  _119
REMARK   51  A    between atoms: _119  and  _120
REMARK   52  A    between atoms: _120  and  _121
REMARK   53  A    between atoms: _121  and  _122
REMARK   54  A    between atoms: _131  and  _133
REMARK   55  A    between atoms: _133  and  _134
REMARK   56  A    between atoms: _136  and  _138
REMARK   57  A    between atoms: _138  and  _139
REMARK   58  A    between atoms: _138  and  _141
REMARK   59  A    between atoms: _141  and  _142
REMARK   60  A    between atoms: _142  and  _143
REMARK   61  A    between atoms: _143  and  _144
REMARK   62  A    between atoms: _153  and  _155
REMARK   63  A    between atoms: _155  and  _156
REMARK   64  A    between atoms: _155  and  _158
REMARK   65  A    between atoms: _158  and  _159
REMARK   66  A    between atoms: _164  and  _166
REMARK   67  A    between atoms: _166  and  _167
REMARK   68  A    between atoms: _169  and  _171
REMARK   69  A    between atoms: _171  and  _172
REMARK   70  A    between atoms: _171  and  _174
REMARK   71  A    between atoms: _174  and  _175
REMARK   72  A    between atoms: _175  and  _176
REMARK   73  A    between atoms: _176  and  _177
REMARK   74  A    between atoms: _186  and  _188
REMARK   75  A    between atoms: _188  and  _189
REMARK   76  A    between atoms: _191  and  _193
REMARK   77  A    between atoms: _193  and  _194
REMARK   78  A    between atoms: _193  and  _196
REMARK   79  A    between atoms: _196  and  _197
REMARK   80  A    between atoms: _207  and  _209
REMARK   81  A    between atoms: _209  and  _210
REMARK   82  A    between atoms: _213  and  _215
REMARK   83  A    between atoms: _215  and  _216
REMARK   84  A    between atoms: _219  and  _221
REMARK   85  A    between atoms: _221  and  _222
REMARK   86  A    between atoms: _221  and  _224
REMARK   87  A    between atoms: _224  and  _225
REMARK   88  A    between atoms: _228  and  _230
REMARK   89  A    between atoms: _230  and  _231
REMARK   90  A    between atoms: _234  and  _236
REMARK   91  A    between atoms: _236  and  _237
REMARK   92  A    between atoms: _236  and  _239
REMARK   93  A    between atoms: _239  and  _240
REMARK   94  A    between atoms: _240  and  _241
REMARK   95  A    between atoms: _246  and  _248
REMARK   96  A    between atoms: _248  and  _249
REMARK   97  A    between atoms: _248  and  _251
REMARK   98  A    between atoms: _251  and  _252
REMARK   99  A    between atoms: _255  and  _257
REMARK  100  A    between atoms: _257  and  _258
REMARK  101  A    between atoms: _257  and  _260
REMARK  102  A    between atoms: _260  and  _261
REMARK  103  A    between atoms: _264  and  _266
REMARK  104  A    between atoms: _266  and  _267
REMARK  105  A    between atoms: _266  and  _269
REMARK  106  A    between atoms: _269  and  _270
REMARK  107  A    between atoms: _273  and  _275
REMARK  108  A    between atoms: _275  and  _276
REMARK  109  A    between atoms: _275  and  _278
REMARK  110  A    between atoms: _278  and  _279
REMARK  111  A    between atoms: _281  and  _283
REMARK  112  A    between atoms: _283  and  _284
REMARK  113  A    between atoms: _283  and  _286
REMARK  114  A    between atoms: _289  and  _291
REMARK  115  A    between atoms: _291  and  _292
REMARK  116  A    between atoms: _291  and  _294
REMARK  117  A    between atoms: _294  and  _295
REMARK  118  A    between atoms: _295  and  _296
REMARK  119  A    between atoms: _296  and  _297
REMARK  120  A    between atoms: _297  and  _298
REMARK  121  A    between atoms: _303  and  _304
REMARK  122  A    between atoms: _309  and  _311
REMARK  123  A    between atoms: _311  and  _312
REMARK  124  A    between atoms: _311  and  _314
REMARK  125  A    between atoms: _314  and  _315
REMARK  126  A    between atoms: _320  and  _322
REMARK  127  A    between atoms: _322  and  _323
REMARK  128  A    between atoms: _322  and  _325
REMARK  129  A    between atoms: _325  and  _326
REMARK  130  A    between atoms: _329  and  _331
REMARK  131  A    between atoms: _331  and  _332
REMARK  132  A    between atoms: _331  and  _334
REMARK  133  A    between atoms: _337  and  _339
REMARK  134  A    between atoms: _339  and  _340
REMARK  135  A    between atoms: _342  and  _344
REMARK  136  A    between atoms: _344  and  _345
REMARK  137  A    between atoms: _344  and  _347
REMARK  138  A    between atoms: _347  and  _348
REMARK  139  A    between atoms: _348  and  _349
REMARK  140  A    between atoms: _349  and  _350
REMARK  141  A    between atoms: _350  and  _351
REMARK  142  A    between atoms: _355  and  _357
REMARK  143  A    between atoms: _357  and  _358
REMARK  144  A    between atoms: _357  and  _360
REMARK  145  A    between atoms: _360  and  _361
REMARK  146  A    between atoms: _364  and  _366
REMARK  147  A    between atoms: _366  and  _367
REMARK  148  A    between atoms: _370  and  _372
REMARK  149  A    between atoms: _372  and  _373
REMARK  150  A    between atoms: _375  and  _377
REMARK  151  A    between atoms: _377  and  _378
REMARK  152  A    between atoms: _377  and  _380
REMARK  153  A    between atoms: _380  and  _381
REMARK  154  A    between atoms: _384  and  _386
REMARK  155  A    between atoms: _386  and  _387
REMARK  156  A    between atoms: _386  and  _389
REMARK  157  A    between atoms: _389  and  _390
REMARK  158  A    between atoms: _393  and  _395
REMARK  159  A    between atoms: _395  and  _396
REMARK  160  A    between atoms: _399  and  _401
REMARK  161  A    between atoms: _401  and  _402
REMARK  162  A    between atoms: _401  and  _404
REMARK  163  A    between atoms: _404  and  _405
REMARK  164  A    between atoms: _405  and  _406
REMARK  165  A    between atoms: _409  and  _411
REMARK  166  A    between atoms: _411  and  _412
REMARK  167  A    between atoms: _411  and  _414
REMARK  168  A    between atoms: _417  and  _419
REMARK  169  A    between atoms: _419  and  _420
REMARK  170  A    between atoms: _419  and  _422
REMARK  171  A    between atoms: _422  and  _423
REMARK  172  A    between atoms: _426  and  _428
REMARK  173  A    between atoms: _428  and  _429
REMARK  174  A    between atoms: _431  and  _433
REMARK  175  A    between atoms: _433  and  _434
REMARK  176  A    between atoms: _433  and  _436
REMARK  177  A    between atoms: _439  and  _441
REMARK  178  A    between atoms: _441  and  _442
REMARK  179  A    between atoms: _444  and  _446
REMARK  180  A    between atoms: _446  and  _447
REMARK  181  A    between atoms: _446  and  _449
REMARK  182  A    between atoms: _449  and  _450
REMARK  183  A    between atoms: _453  and  _455
REMARK  184  A    between atoms: _455  and  _456
REMARK  185  A    between atoms: _455  and  _458
REMARK  186  A    between atoms: _458  and  _459
REMARK  187  A    between atoms: _464  and  _466
REMARK  188  A    between atoms: _466  and  _467
REMARK  189  A    between atoms: _466  and  _469
REMARK  190  A    between atoms: _472  and  _474
REMARK  191  A    between atoms: _474  and  _475
REMARK  192  A    between atoms: _474  and  _477
REMARK  193  A    between atoms: _477  and  _478
REMARK  194  A    between atoms: _478  and  _479
REMARK  195  A    between atoms: _484  and  _486
REMARK  196  A    between atoms: _486  and  _487
REMARK  197  A    between atoms: _491  and  _492
REMARK  198  A    between atoms: _497  and  _499
REMARK  199  A    between atoms: _499  and  _500
REMARK  200  A    between atoms: _499  and  _502
REMARK  201  A    between atoms: _502  and  _503
REMARK  202  A    between atoms: _503  and  _504
REMARK  203  A    between atoms: _507  and  _509
REMARK  204  A    between atoms: _509  and  _510
REMARK  205  A    between atoms: _509  and  _512
REMARK  206  A    between atoms: _515  and  _517
REMARK  207  A    between atoms: _517  and  _518
REMARK  208  A    between atoms: _517  and  _520
REMARK  209  A    between atoms: _520  and  _521
REMARK  210  A    between atoms: _525  and  _526
REMARK  211  A    between atoms: _531  and  _533
REMARK  212  A    between atoms: _533  and  _534
REMARK  213  A    between atoms: _533  and  _536
REMARK  214  A    between atoms: _536  and  _537
REMARK  215  A    between atoms: _540  and  _542
REMARK  216  A    between atoms: _542  and  _543
REMARK  217  A    between atoms: _546  and  _548
REMARK  218  A    between atoms: _548  and  _549
REMARK  219  A    between atoms: _548  and  _551
REMARK  220  A    between atoms: _551  and  _552
REMARK  221  A    between atoms: _555  and  _557
REMARK  222  A    between atoms: _557  and  _558
REMARK  223  A    between atoms: _557  and  _560
REMARK  224  A    between atoms: _560  and  _561
REMARK  225  A    between atoms: _563  and  _565
REMARK  226  A    between atoms: _565  and  _566
REMARK  227  A    between atoms: _568  and  _570
REMARK  228  A    between atoms: _570  and  _571
REMARK  229  A    between atoms: _570  and  _573
REMARK  230  A    between atoms: _573  and  _574
REMARK  231  A    between atoms: _577  and  _579
REMARK  232  A    between atoms: _579  and  _580
REMARK  233  A    between atoms: _579  and  _582
REMARK                            x       y       z     vdW  Elec       q    Type
REMARK                         _______ _______ _______ _____ _____    ______ ____
ROOT
ATOM      1  O   HOH     1      -0.681  -3.992  17.376  0.00  0.00    +0.000 OA
ENDROOT
TORSDOF 0
REMARK  Name = ../refined-set-2016/4xtx/4xtx_pocket.pdb
REMARK  233 active torsions:
REMARK  status: ('A' for Active; 'I' for Inactive)
REMARK    1  A    between atoms: _1  and  _3
REMARK    2  A    between atoms: _3  and  _4
REMARK    3  A    between atoms: _3  and  _6
REMARK    4  A    between atoms: _6  and  _7
REMARK    5  A    between atoms: _10  and  _12
REMARK    6  A    between atoms: _12  and  _13
REMARK    7  A    between atoms: _15  and  _17
REMARK    8  A    between atoms: _17  and  _18
REMARK    9  A    between atoms: _17  and  _20
REMARK   10  A    between atoms: _20  and  _21
REMARK   11  A    between atoms: _23  and  _25
REMARK   12  A    between atoms: _25  and  _26
REMARK   13  A    between atoms: _25  and  _28
REMARK   14  A    between atoms: _28  and  _29
REMARK   15  A    between atoms: _32  and  _34
REMARK   16  A    between atoms: _34  and  _35
REMARK   17  A    between atoms: _34  and  _37
REMARK   18  A    between atoms: _37  and  _38
REMARK   19  A    between atoms: _43  and  _45
REMARK   20  A    between atoms: _45  and  _46
REMARK   21  A    between atoms: _49  and  _51
REMARK   22  A    between atoms: _51  and  _52
REMARK   23  A    between atoms: _51  and  _54
REMARK   24  A    between atoms: _54  and  _55
REMARK   25  A    between atoms: _58  and  _60
REMARK   26  A    between atoms: _60  and  _61
REMARK   27  A    between atoms: _60  and  _63
REMARK   28  A    between atoms: _63  and  _64
REMARK   29  A    between atoms: _67  and  _69
REMARK   30  A    between atoms: _69  and  _70
REMARK   31  A    between atoms: _69  and  _72
REMARK   32  A    between atoms: _72  and  _73
REMARK   33  A    between atoms: _76  and  _78
REMARK   34  A    between atoms: _78  and  _79
REMARK   35  A    between atoms: _82  and  _84
REMARK   36  A    between atoms: _84  and  _85
REMARK   37  A    between atoms: _84  and  _87
REMARK   38  A    between atoms: _87  and  _88
REMARK   39  A    between atoms: _88  and  _89
REMARK   40  A    between atoms: _94  and  _96
REMARK   41  A    between atoms: _96  and  _97
REMARK   42  A    between atoms: _96  and  _99
REMARK   43  A    between atoms: _99  and  _100
REMARK   44  A    between atoms: _103  and  _105
REMARK   45  A    between atoms: _105  and  _106
REMARK   46  A    between atoms: _109  and  _111
REMARK   47  A    between atoms: _111  and  _112
REMARK   48  A    between atoms: _114  and  _116
REMARK   49  A    between atoms: _116  and  _117
REMARK   50  A    between atoms: _116  and  _119
REMARK   51  A    between atoms: _119  and  _120
REMARK   52  A    between atoms: _120  and  _121
REMARK   53  A    between atoms: _121  and  _122
REMARK   54  A    between atoms: _131  and  _133
REMARK   55  A    between atoms: _133  and  _134
REMARK   56  A    between atoms: _136  and  _138
REMARK   57  A    between atoms: _138  and  _139
REMARK   58  A    between atoms: _138  and  _141
REMARK   59  A    between atoms: _141  and  _142
REMARK   60  A    between atoms: _142  and  _143
REMARK   61  A    between atoms: _143  and  _144
REMARK   62  A    between atoms: _153  and  _155
REMARK   63  A    between atoms: _155  and  _156
REMARK   64  A    between atoms: _155  and  _158
REMARK   65  A    between atoms: _158  and  _159
REMARK   66  A    between atoms: _164  and  _166
REMARK   67  A    between atoms: _166  and  _167
REMARK   68  A    between atoms: _169  and  _171
REMARK   69  A    between atoms: _171  and  _172
REMARK   70  A    between atoms: _171  and  _174
REMARK   71  A    between atoms: _174  and  _175
REMARK   72  A    between atoms: _175  and  _176
REMARK   73  A    between atoms: _176  and  _177
REMARK   74  A    between atoms: _186  and  _188
REMARK   75  A    between atoms: _188  and  _189
REMARK   76  A    between atoms: _191  and  _193
REMARK   77  A    between atoms: _193  and  _194
REMARK   78  A    between atoms: _193  and  _196
REMARK   79  A    between atoms: _196  and  _197
REMARK   80  A    between atoms: _207  and  _209
REMARK   81  A    between atoms: _209  and  _210
REMARK   82  A    between atoms: _213  and  _215
REMARK   83  A    between atoms: _215  and  _216
REMARK   84  A    between atoms: _219  and  _221
REMARK   85  A    between atoms: _221  and  _222
REMARK   86  A    between atoms: _221  and  _224
REMARK   87  A    between atoms: _224  and  _225
REMARK   88  A    between atoms: _228  and  _230
REMARK   89  A    between atoms: _230  and  _231
REMARK   90  A    between atoms: _234  and  _236
REMARK   91  A    between atoms: _236  and  _237
REMARK   92  A    between atoms: _236  and  _239
REMARK   93  A    between atoms: _239  and  _240
REMARK   94  A    between atoms: _240  and  _241
REMARK   95  A    between atoms: _246  and  _248
REMARK   96  A    between atoms: _248  and  _249
REMARK   97  A    between atoms: _248  and  _251
REMARK   98  A    between atoms: _251  and  _252
REMARK   99  A    between atoms: _255  and  _257
REMARK  100  A    between atoms: _257  and  _258
REMARK  101  A    between atoms: _257  and  _260
REMARK  102  A    between atoms: _260  and  _261
REMARK  103  A    between atoms: _264  and  _266
REMARK  104  A    between atoms: _266  and  _267
REMARK  105  A    between atoms: _266  and  _269
REMARK  106  A    between atoms: _269  and  _270
REMARK  107  A    between atoms: _273  and  _275
REMARK  108  A    between atoms: _275  and  _276
REMARK  109  A    between atoms: _275  and  _278
REMARK  110  A    between atoms: _278  and  _279
REMARK  111  A    between atoms: _281  and  _283
REMARK  112  A    between atoms: _283  and  _284
REMARK  113  A    between atoms: _283  and  _286
REMARK  114  A    between atoms: _289  and  _291
REMARK  115  A    between atoms: _291  and  _292
REMARK  116  A    between atoms: _291  and  _294
REMARK  117  A    between atoms: _294  and  _295
REMARK  118  A    between atoms: _295  and  _296
REMARK  119  A    between atoms: _296  and  _297
REMARK  120  A    between atoms: _297  and  _298
REMARK  121  A    between atoms: _303  and  _304
REMARK  122  A    between atoms: _309  and  _311
REMARK  123  A    between atoms: _311  and  _312
REMARK  124  A    between atoms: _311  and  _314
REMARK  125  A    between atoms: _314  and  _315
REMARK  126  A    between atoms: _320  and  _322
REMARK  127  A    between atoms: _322  and  _323
REMARK  128  A    between atoms: _322  and  _325
REMARK  129  A    between atoms: _325  and  _326
REMARK  130  A    between atoms: _329  and  _331
REMARK  131  A    between atoms: _331  and  _332
REMARK  132  A    between atoms: _331  and  _334
REMARK  133  A    between atoms: _337  and  _339
REMARK  134  A    between atoms: _339  and  _340
REMARK  135  A    between atoms: _342  and  _344
REMARK  136  A    between atoms: _344  and  _345
REMARK  137  A    between atoms: _344  and  _347
REMARK  138  A    between atoms: _347  and  _348
REMARK  139  A    between atoms: _348  and  _349
REMARK  140  A    between atoms: _349  and  _350
REMARK  141  A    between atoms: _350  and  _351
REMARK  142  A    between atoms: _355  and  _357
REMARK  143  A    between atoms: _357  and  _358
REMARK  144  A    between atoms: _357  and  _360
REMARK  145  A    between atoms: _360  and  _361
REMARK  146  A    between atoms: _364  and  _366
REMARK  147  A    between atoms: _366  and  _367
REMARK  148  A    between atoms: _370  and  _372
REMARK  149  A    between atoms: _372  and  _373
REMARK  150  A    between atoms: _375  and  _377
REMARK  151  A    between atoms: _377  and  _378
REMARK  152  A    between atoms: _377  and  _380
REMARK  153  A    between atoms: _380  and  _381
REMARK  154  A    between atoms: _384  and  _386
REMARK  155  A    between atoms: _386  and  _387
REMARK  156  A    between atoms: _386  and  _389
REMARK  157  A    between atoms: _389  and  _390
REMARK  158  A    between atoms: _393  and  _395
REMARK  159  A    between atoms: _395  and  _396
REMARK  160  A    between atoms: _399  and  _401
REMARK  161  A    between atoms: _401  and  _402
REMARK  162  A    between atoms: _401  and  _404
REMARK  163  A    between atoms: _404  and  _405
REMARK  164  A    between atoms: _405  and  _406
REMARK  165  A    between atoms: _409  and  _411
REMARK  166  A    between atoms: _411  and  _412
REMARK  167  A    between atoms: _411  and  _414
REMARK  168  A    between atoms: _417  and  _419
REMARK  169  A    between atoms: _419  and  _420
REMARK  170  A    between atoms: _419  and  _422
REMARK  171  A    between atoms: _422  and  _423
REMARK  172  A    between atoms: _426  and  _428
REMARK  173  A    between atoms: _428  and  _429
REMARK  174  A    between atoms: _431  and  _433
REMARK  175  A    between atoms: _433  and  _434
REMARK  176  A    between atoms: _433  and  _436
REMARK  177  A    between atoms: _439  and  _441
REMARK  178  A    between atoms: _441  and  _442
REMARK  179  A    between atoms: _444  and  _446
REMARK  180  A    between atoms: _446  and  _447
REMARK  181  A    between atoms: _446  and  _449
REMARK  182  A    between atoms: _449  and  _450
REMARK  183  A    between atoms: _453  and  _455
REMARK  184  A    between atoms: _455  and  _456
REMARK  185  A    between atoms: _455  and  _458
REMARK  186  A    between atoms: _458  and  _459
REMARK  187  A    between atoms: _464  and  _466
REMARK  188  A    between atoms: _466  and  _467
REMARK  189  A    between atoms: _466  and  _469
REMARK  190  A    between atoms: _472  and  _474
REMARK  191  A    between atoms: _474  and  _475
REMARK  192  A    between atoms: _474  and  _477
REMARK  193  A    between atoms: _477  and  _478
REMARK  194  A    between atoms: _478  and  _479
REMARK  195  A    between atoms: _484  and  _486
REMARK  196  A    between atoms: _486  and  _487
REMARK  197  A    between atoms: _491  and  _492
REMARK  198  A    between atoms: _497  and  _499
REMARK  199  A    between atoms: _499  and  _500
REMARK  200  A    between atoms: _499  and  _502
REMARK  201  A    between atoms: _502  and  _503
REMARK  202  A    between atoms: _503  and  _504
REMARK  203  A    between atoms: _507  and  _509
REMARK  204  A    between atoms: _509  and  _510
REMARK  205  A    between atoms: _509  and  _512
REMARK  206  A    between atoms: _515  and  _517
REMARK  207  A    between atoms: _517  and  _518
REMARK  208  A    between atoms: _517  and  _520
REMARK  209  A    between atoms: _520  and  _521
REMARK  210  A    between atoms: _525  and  _526
REMARK  211  A    between atoms: _531  and  _533
REMARK  212  A    between atoms: _533  and  _534
REMARK  213  A    between atoms: _533  and  _536
REMARK  214  A    between atoms: _536  and  _537
REMARK  215  A    between atoms: _540  and  _542
REMARK  216  A    between atoms: _542  and  _543
REMARK  217  A    between atoms: _546  and  _548
REMARK  218  A    between atoms: _548  and  _549
REMARK  219  A    between atoms: _548  and  _551
REMARK  220  A    between atoms: _551  and  _552
REMARK  221  A    between atoms: _555  and  _557
REMARK  222  A    between atoms: _557  and  _558
REMARK  223  A    between atoms: _557  and  _560
REMARK  224  A    between atoms: _560  and  _561
REMARK  225  A    between atoms: _563  and  _565
REMARK  226  A    between atoms: _565  and  _566
REMARK  227  A    between atoms: _568  and  _570
REMARK  228  A    between atoms: _570  and  _571
REMARK  229  A    between atoms: _570  and  _573
REMARK  230  A    between atoms: _573  and  _574
REMARK  231  A    between atoms: _577  and  _579
REMARK  232  A    between atoms: _579  and  _580
REMARK  233  A    between atoms: _579  and  _582
REMARK                            x       y       z     vdW  Elec       q    Type
REMARK                         _______ _______ _______ _____ _____    ______ ____
ROOT
ATOM      1  O   HOH     1       0.560  -0.583  18.387  0.00  0.00    +0.000 OA
ENDROOT
TORSDOF 0
REMARK  Name = ../refined-set-2016/4xtx/4xtx_pocket.pdb
REMARK  233 active torsions:
REMARK  status: ('A' for Active; 'I' for Inactive)
REMARK    1  A    between atoms: _1  and  _3
REMARK    2  A    between atoms: _3  and  _4
REMARK    3  A    between atoms: _3  and  _6
REMARK    4  A    between atoms: _6  and  _7
REMARK    5  A    between atoms: _10  and  _12
REMARK    6  A    between atoms: _12  and  _13
REMARK    7  A    between atoms: _15  and  _17
REMARK    8  A    between atoms: _17  and  _18
REMARK    9  A    between atoms: _17  and  _20
REMARK   10  A    between atoms: _20  and  _21
REMARK   11  A    between atoms: _23  and  _25
REMARK   12  A    between atoms: _25  and  _26
REMARK   13  A    between atoms: _25  and  _28
REMARK   14  A    between atoms: _28  and  _29
REMARK   15  A    between atoms: _32  and  _34
REMARK   16  A    between atoms: _34  and  _35
REMARK   17  A    between atoms: _34  and  _37
REMARK   18  A    between atoms: _37  and  _38
REMARK   19  A    between atoms: _43  and  _45
REMARK   20  A    between atoms: _45  and  _46
REMARK   21  A    between atoms: _49  and  _51
REMARK   22  A    between atoms: _51  and  _52
REMARK   23  A    between atoms: _51  and  _54
REMARK   24  A    between atoms: _54  and  _55
REMARK   25  A    between atoms: _58  and  _60
REMARK   26  A    between atoms: _60  and  _61
REMARK   27  A    between atoms: _60  and  _63
REMARK   28  A    between atoms: _63  and  _64
REMARK   29  A    between atoms: _67  and  _69
REMARK   30  A    between atoms: _69  and  _70
REMARK   31  A    between atoms: _69  and  _72
REMARK   32  A    between atoms: _72  and  _73
REMARK   33  A    between atoms: _76  and  _78
REMARK   34  A    between atoms: _78  and  _79
REMARK   35  A    between atoms: _82  and  _84
REMARK   36  A    between atoms: _84  and  _85
REMARK   37  A    between atoms: _84  and  _87
REMARK   38  A    between atoms: _87  and  _88
REMARK   39  A    between atoms: _88  and  _89
REMARK   40  A    between atoms: _94  and  _96
REMARK   41  A    between atoms: _96  and  _97
REMARK   42  A    between atoms: _96  and  _99
REMARK   43  A    between atoms: _99  and  _100
REMARK   44  A    between atoms: _103  and  _105
REMARK   45  A    between atoms: _105  and  _106
REMARK   46  A    between atoms: _109  and  _111
REMARK   47  A    between atoms: _111  and  _112
REMARK   48  A    between atoms: _114  and  _116
REMARK   49  A    between atoms: _116  and  _117
REMARK   50  A    between atoms: _116  and  _119
REMARK   51  A    between atoms: _119  and  _120
REMARK   52  A    between atoms: _120  and  _121
REMARK   53  A    between atoms: _121  and  _122
REMARK   54  A    between atoms: _131  and  _133
REMARK   55  A    between atoms: _133  and  _134
REMARK   56  A    between atoms: _136  and  _138
REMARK   57  A    between atoms: _138  and  _139
REMARK   58  A    between atoms: _138  and  _141
REMARK   59  A    between atoms: _141  and  _142
REMARK   60  A    between atoms: _142  and  _143
REMARK   61  A    between atoms: _143  and  _144
REMARK   62  A    between atoms: _153  and  _155
REMARK   63  A    between atoms: _155  and  _156
REMARK   64  A    between atoms: _155  and  _158
REMARK   65  A    between atoms: _158  and  _159
REMARK   66  A    between atoms: _164  and  _166
REMARK   67  A    between atoms: _166  and  _167
REMARK   68  A    between atoms: _169  and  _171
REMARK   69  A    between atoms: _171  and  _172
REMARK   70  A    between atoms: _171  and  _174
REMARK   71  A    between atoms: _174  and  _175
REMARK   72  A    between atoms: _175  and  _176
REMARK   73  A    between atoms: _176  and  _177
REMARK   74  A    between atoms: _186  and  _188
REMARK   75  A    between atoms: _188  and  _189
REMARK   76  A    between atoms: _191  and  _193
REMARK   77  A    between atoms: _193  and  _194
REMARK   78  A    between atoms: _193  and  _196
REMARK   79  A    between atoms: _196  and  _197
REMARK   80  A    between atoms: _207  and  _209
REMARK   81  A    between atoms: _209  and  _210
REMARK   82  A    between atoms: _213  and  _215
REMARK   83  A    between atoms: _215  and  _216
REMARK   84  A    between atoms: _219  and  _221
REMARK   85  A    between atoms: _221  and  _222
REMARK   86  A    between atoms: _221  and  _224
REMARK   87  A    between atoms: _224  and  _225
REMARK   88  A    between atoms: _228  and  _230
REMARK   89  A    between atoms: _230  and  _231
REMARK   90  A    between atoms: _234  and  _236
REMARK   91  A    between atoms: _236  and  _237
REMARK   92  A    between atoms: _236  and  _239
REMARK   93  A    between atoms: _239  and  _240
REMARK   94  A    between atoms: _240  and  _241
REMARK   95  A    between atoms: _246  and  _248
REMARK   96  A    between atoms: _248  and  _249
REMARK   97  A    between atoms: _248  and  _251
REMARK   98  A    between atoms: _251  and  _252
REMARK   99  A    between atoms: _255  and  _257
REMARK  100  A    between atoms: _257  and  _258
REMARK  101  A    between atoms: _257  and  _260
REMARK  102  A    between atoms: _260  and  _261
REMARK  103  A    between atoms: _264  and  _266
REMARK  104  A    between atoms: _266  and  _267
REMARK  105  A    between atoms: _266  and  _269
REMARK  106  A    between atoms: _269  and  _270
REMARK  107  A    between atoms: _273  and  _275
REMARK  108  A    between atoms: _275  and  _276
REMARK  109  A    between atoms: _275  and  _278
REMARK  110  A    between atoms: _278  and  _279
REMARK  111  A    between atoms: _281  and  _283
REMARK  112  A    between atoms: _283  and  _284
REMARK  113  A    between atoms: _283  and  _286
REMARK  114  A    between atoms: _289  and  _291
REMARK  115  A    between atoms: _291  and  _292
REMARK  116  A    between atoms: _291  and  _294
REMARK  117  A    between atoms: _294  and  _295
REMARK  118  A    between atoms: _295  and  _296
REMARK  119  A    between atoms: _296  and  _297
REMARK  120  A    between atoms: _297  and  _298
REMARK  121  A    between atoms: _303  and  _304
REMARK  122  A    between atoms: _309  and  _311
REMARK  123  A    between atoms: _311  and  _312
REMARK  124  A    between atoms: _311  and  _314
REMARK  125  A    between atoms: _314  and  _315
REMARK  126  A    between atoms: _320  and  _322
REMARK  127  A    between atoms: _322  and  _323
REMARK  128  A    between atoms: _322  and  _325
REMARK  129  A    between atoms: _325  and  _326
REMARK  130  A    between atoms: _329  and  _331
REMARK  131  A    between atoms: _331  and  _332
REMARK  132  A    between atoms: _331  and  _334
REMARK  133  A    between atoms: _337  and  _339
REMARK  134  A    between atoms: _339  and  _340
REMARK  135  A    between atoms: _342  and  _344
REMARK  136  A    between atoms: _344  and  _345
REMARK  137  A    between atoms: _344  and  _347
REMARK  138  A    between atoms: _347  and  _348
REMARK  139  A    between atoms: _348  and  _349
REMARK  140  A    between atoms: _349  and  _350
REMARK  141  A    between atoms: _350  and  _351
REMARK  142  A    between atoms: _355  and  _357
REMARK  143  A    between atoms: _357  and  _358
REMARK  144  A    between atoms: _357  and  _360
REMARK  145  A    between atoms: _360  and  _361
REMARK  146  A    between atoms: _364  and  _366
REMARK  147  A    between atoms: _366  and  _367
REMARK  148  A    between atoms: _370  and  _372
REMARK  149  A    between atoms: _372  and  _373
REMARK  150  A    between atoms: _375  and  _377
REMARK  151  A    between atoms: _377  and  _378
REMARK  152  A    between atoms: _377  and  _380
REMARK  153  A    between atoms: _380  and  _381
REMARK  154  A    between atoms: _384  and  _386
REMARK  155  A    between atoms: _386  and  _387
REMARK  156  A    between atoms: _386  and  _389
REMARK  157  A    between atoms: _389  and  _390
REMARK  158  A    between atoms: _393  and  _395
REMARK  159  A    between atoms: _395  and  _396
REMARK  160  A    between atoms: _399  and  _401
REMARK  161  A    between atoms: _401  and  _402
REMARK  162  A    between atoms: _401  and  _404
REMARK  163  A    between atoms: _404  and  _405
REMARK  164  A    between atoms: _405  and  _406
REMARK  165  A    between atoms: _409  and  _411
REMARK  166  A    between atoms: _411  and  _412
REMARK  167  A    between atoms: _411  and  _414
REMARK  168  A    between atoms: _417  and  _419
REMARK  169  A    between atoms: _419  and  _420
REMARK  170  A    between atoms: _419  and  _422
REMARK  171  A    between atoms: _422  and  _423
REMARK  172  A    between atoms: _426  and  _428
REMARK  173  A    between atoms: _428  and  _429
REMARK  174  A    between atoms: _431  and  _433
REMARK  175  A    between atoms: _433  and  _434
REMARK  176  A    between atoms: _433  and  _436
REMARK  177  A    between atoms: _439  and  _441
REMARK  178  A    between atoms: _441  and  _442
REMARK  179  A    between atoms: _444  and  _446
REMARK  180  A    between atoms: _446  and  _447
REMARK  181  A    between atoms: _446  and  _449
REMARK  182  A    between atoms: _449  and  _450
REMARK  183  A    between atoms: _453  and  _455
REMARK  184  A    between atoms: _455  and  _456
REMARK  185  A    between atoms: _455  and  _458
REMARK  186  A    between atoms: _458  and  _459
REMARK  187  A    between atoms: _464  and  _466
REMARK  188  A    between atoms: _466  and  _467
REMARK  189  A    between atoms: _466  and  _469
REMARK  190  A    between atoms: _472  and  _474
REMARK  191  A    between atoms: _474  and  _475
REMARK  192  A    between atoms: _474  and  _477
REMARK  193  A    between atoms: _477  and  _478
REMARK  194  A    between atoms: _478  and  _479
REMARK  195  A    between atoms: _484  and  _486
REMARK  196  A    between atoms: _486  and  _487
REMARK  197  A    between atoms: _491  and  _492
REMARK  198  A    between atoms: _497  and  _499
REMARK  199  A    between atoms: _499  and  _500
REMARK  200  A    between atoms: _499  and  _502
REMARK  201  A    between atoms: _502  and  _503
REMARK  202  A    between atoms: _503  and  _504
REMARK  203  A    between atoms: _507  and  _509
REMARK  204  A    between atoms: _509  and  _510
REMARK  205  A    between atoms: _509  and  _512
REMARK  206  A    between atoms: _515  and  _517
REMARK  207  A    between atoms: _517  and  _518
REMARK  208  A    between atoms: _517  and  _520
REMARK  209  A    between atoms: _520  and  _521
REMARK  210  A    between atoms: _525  and  _526
REMARK  211  A    between atoms: _531  and  _533
REMARK  212  A    between atoms: _533  and  _534
REMARK  213  A    between atoms: _533  and  _536
REMARK  214  A    between atoms: _536  and  _537
REMARK  215  A    between atoms: _540  and  _542
REMARK  216  A    between atoms: _542  and  _543
REMARK  217  A    between atoms: _546  and  _548
REMARK  218  A    between atoms: _548  and  _549
REMARK  219  A    between atoms: _548  and  _551
REMARK  220  A    between atoms: _551  and  _552
REMARK  221  A    between atoms: _555  and  _557
REMARK  222  A    between atoms: _557  and  _558
REMARK  223  A    between atoms: _557  and  _560
REMARK  224  A    between atoms: _560  and  _561
REMARK  225  A    between atoms: _563  and  _565
REMARK  226  A    between atoms: _565  and  _566
REMARK  227  A    between atoms: _568  and  _570
REMARK  228  A    between atoms: _570  and  _571
REMARK  229  A    between atoms: _570  and  _573
REMARK  230  A    between atoms: _573  and  _574
REMARK  231  A    between atoms: _577  and  _579
REMARK  232  A    between atoms: _579  and  _580
REMARK  233  A    between atoms: _579  and  _582
REMARK                            x       y       z     vdW  Elec       q    Type
REMARK                         _______ _______ _______ _____ _____    ______ ____
ROOT
ATOM      1  O   HOH     1       6.719  -7.929  15.255  0.00  0.00    +0.000 OA
ENDROOT
TORSDOF 0
